






                              *****************************************

                                SUPER NUMERICAL ELECTROMAGNETICS CODE  

                              *****************************************




                                    - - - - COMMENTS - - - -


                         Computer generated SuperNEC file
                         The model has : 1 segments
                                         4 plates
                                         0 cylinders
                                         no symmetry
                         




                                - - - STRUCTURE SPECIFICATION - - -

                                    COORDINATES MUST BE INPUT IN
                                    METERS OR BE SCALED TO METERS
                                    BEFORE STRUCTURE INPUT IS ENDED


 WIRE                                                                               NO. OF    FIRST  LAST     TAG
 NO.        X1         Y1         Z1          X2         Y2         Z2      RADIUS   SEG.     SEG.   SEG.     NO.
    1   -0.35000    0.00000    0.00000    -0.05000    0.00000    0.00000    0.00100      1        1     1       1 

	 -------------------------- UTD PLATE GEOMETRY -------------------------- 

		Transparent thin dielectric slab 
			Dielectric layer number : 1
			Thickness                      = 1.000000 
			Conductivity                   = 10000000.000000 
			Relative permittivity          = 1.000000 
			Relative permeability          = 1.000000 

		Plate has 4 edges 
		Coordinates of corner 1 : ( 1.00, -2.00, -1.00) active
		Coordinates of corner 2 : ( 1.00,  2.00, -1.00) active
		Coordinates of corner 3 : ( 1.00,  2.00, 14.00) active
		Coordinates of corner 4 : ( 1.00, -2.00, 14.00) active

	 ------------------------------------------------------------------------ 


	 -------------------------- UTD PLATE GEOMETRY -------------------------- 

		Transparent thin dielectric slab 
			Dielectric layer number : 1
			Thickness                      = 1.000000 
			Conductivity                   = 10000000.000000 
			Relative permittivity          = 1.000000 
			Relative permeability          = 1.000000 

		Plate has 4 edges 
		Coordinates of corner 1 : ( 1.00,  2.00, -1.00) active
		Coordinates of corner 2 : (-1.00,  2.00, -1.00) active
		Coordinates of corner 3 : (-1.00,  2.00, 14.00) active
		Coordinates of corner 4 : ( 1.00,  2.00, 14.00) active

	 ------------------------------------------------------------------------ 


	 -------------------------- UTD PLATE GEOMETRY -------------------------- 

		Transparent thin dielectric slab 
			Dielectric layer number : 1
			Thickness                      = 1.000000 
			Conductivity                   = 10000000.000000 
			Relative permittivity          = 1.000000 
			Relative permeability          = 1.000000 

		Plate has 4 edges 
		Coordinates of corner 1 : (-1.00,  2.00, -1.00) active
		Coordinates of corner 2 : (-1.00, -2.00, -1.00) active
		Coordinates of corner 3 : (-1.00, -2.00, 14.00) active
		Coordinates of corner 4 : (-1.00,  2.00, 14.00) active

	 ------------------------------------------------------------------------ 


	 -------------------------- UTD PLATE GEOMETRY -------------------------- 

		Transparent thin dielectric slab 
			Dielectric layer number : 1
			Thickness                      = 1.000000 
			Conductivity                   = 10000000.000000 
			Relative permittivity          = 1.000000 
			Relative permeability          = 1.000000 

		Plate has 4 edges 
		Coordinates of corner 1 : (-1.00, -2.00, -1.00) active
		Coordinates of corner 2 : ( 1.00, -2.00, -1.00) active
		Coordinates of corner 3 : ( 1.00, -2.00, 14.00) active
		Coordinates of corner 4 : (-1.00, -2.00, 14.00) active

	 ------------------------------------------------------------------------ 



***** DATA CARD NO.  1   EK  -1     0     0     0  0.00000E+000 0.00000E+000 0.00000E+000 0.00000E+000 0.00000E+000 0.00000E+000   
***** DATA CARD NO.  2   KH   0     0     0     0  1.00000E+000 0.00000E+000 0.00000E+000 0.00000E+000 0.00000E+000 0.00000E+000   
***** DATA CARD NO.  3   PT  -2    -1    -1    -1  0.00000E+000 0.00000E+000 0.00000E+000 0.00000E+000 0.00000E+000 0.00000E+000   
***** DATA CARD NO.  4   PQ   0     0     0     0  0.00000E+000 0.00000E+000 0.00000E+000 0.00000E+000 0.00000E+000 0.00000E+000   
***** DATA CARD NO.  5   FC   1     0     0     0  0.00000E+000 0.00000E+000 0.00000E+000 0.00000E+000 0.00000E+000 0.00000E+000   
***** DATA CARD NO.  6   FC   1     1     1     0  0.00000E+000 0.00000E+000 0.00000E+000 0.00000E+000 0.00000E+000 0.00000E+000   
***** DATA CARD NO.  7   FC   0     0     0     0  0.00000E+000 0.00000E+000 0.00000E+000 0.00000E+000 0.00000E+000 0.00000E+000   
***** DATA CARD NO.  8   FC   1     1     0     0  0.00000E+000 0.00000E+000 0.00000E+000 0.00000E+000 0.00000E+000 0.00000E+000   
***** DATA CARD NO.  9   FC   1     1     0     0  0.00000E+000 0.00000E+000 0.00000E+000 0.00000E+000 0.00000E+000 0.00000E+000   
***** DATA CARD NO. 10   FC   1     1     0     0  0.00000E+000 0.00000E+000 0.00000E+000 0.00000E+000 0.00000E+000 0.00000E+000   



	 ----------------------- UTD FIELD COMPONENTS ------------------------ 

		General :
			Direct field

		Plate Field Components :
			Slope diffraction
			Corner diffraction
			Single reflection
			Double reflection

		Triple Plate Field Components :
			None

		Cylinder End Cap Field Components :
			Diffraction
			Reflection

		Cylinder Field Components :
			Single reflection
			Single diffraction

		Cylinder - Plate Field Components :
			Plate reflection - cylinder reflection
			Cylinder reflection - plate reflection

	 ------------------------------------------------------------------------ 

***** DATA CARD NO. 11   FR   0     1     0     0  5.00000E+002 0.00000E+000 0.00000E+000 0.00000E+000 0.00000E+000 0.00000E+000   
***** DATA CARD NO. 12   EX   0     1     1     0  1.00000E+000 0.00000E+000 0.00000E+000 0.00000E+000 0.00000E+000 0.00000E+000   
***** DATA CARD NO. 13   XQ   0     0     0     0  0.00000E+000 0.00000E+000 0.00000E+000 0.00000E+000 0.00000E+000 0.00000E+000   

	 ----------------------------- PLATE CONNECTIONS ------------------------ 

		Plate 1 edge 2 joined to plate 2 edge 4
		Plate 1 edge 4 joined to plate 4 edge 2
		Plate 2 edge 2 joined to plate 3 edge 4
		Plate 3 edge 2 joined to plate 4 edge 4

	 ------------------------------------------------------------------------ 


    TOTAL SEGMENTS USED=    1     NO. SEG. IN A SYMMETRIC CELL=    1     SYMMETRY FLAG=  0


        - MULTIPLE WIRE JUNCTIONS -
JUNCTION    SEGMENTS  (- FOR END 1, + FOR END 2)
 NONE



                                - - - - SEGMENTATION DATA - - - -

                                       COORDINATES IN METERS

                        I+ AND I- INDICATE THE SEGMENTS BEFORE AND AFTER I


 SEG.   COORDINATES OF SEG. CENTER     SEG.     ORIENTATION ANGLES    WIRE    CONNECTION DATA   TAG
 NO.       X         Y         Z       LENGTH     ALPHA     BETA      RADIUS    I-   I    I+    NO.
    1  -0.20000   0.00000   0.00000   0.30000    0.00000   0.00000   0.00100     0    1    0      1










                                    - - - - PLATE DATA - - - -

                                       COORDINATES IN METERS

		Plate 1 has 4 edges and 1 dielectric layers 
		Plate transparent : TRUE 

			Dielectric layer number : 1
			Thickness                      = 1.000000 
			Conductivity                   = 10000000.000000 
			Relative permittivity          = 1.000000 
			Relative permeability          = 1.000000 

		Coordinates of corner 1 :   1.00  -2.00  -1.00  active
		Coordinates of corner 2 :   1.00   2.00  -1.00  active
		Coordinates of corner 3 :   1.00   2.00   14.00  active
		Coordinates of corner 4 :   1.00  -2.00   14.00  active

		Plate 2 has 4 edges and 1 dielectric layers 
		Plate transparent : TRUE 

			Dielectric layer number : 1
			Thickness                      = 1.000000 
			Conductivity                   = 10000000.000000 
			Relative permittivity          = 1.000000 
			Relative permeability          = 1.000000 

		Coordinates of corner 1 :   1.00   2.00  -1.00  active
		Coordinates of corner 2 :  -1.00   2.00  -1.00  active
		Coordinates of corner 3 :  -1.00   2.00   14.00  active
		Coordinates of corner 4 :   1.00   2.00   14.00  inactive

		Plate 3 has 4 edges and 1 dielectric layers 
		Plate transparent : TRUE 

			Dielectric layer number : 1
			Thickness                      = 1.000000 
			Conductivity                   = 10000000.000000 
			Relative permittivity          = 1.000000 
			Relative permeability          = 1.000000 

		Coordinates of corner 1 :  -1.00   2.00  -1.00  active
		Coordinates of corner 2 :  -1.00  -2.00  -1.00  active
		Coordinates of corner 3 :  -1.00  -2.00   14.00  active
		Coordinates of corner 4 :  -1.00   2.00   14.00  inactive

		Plate 4 has 4 edges and 1 dielectric layers 
		Plate transparent : TRUE 

			Dielectric layer number : 1
			Thickness                      = 1.000000 
			Conductivity                   = 10000000.000000 
			Relative permittivity          = 1.000000 
			Relative permeability          = 1.000000 

		Coordinates of corner 1 :  -1.00  -2.00  -1.00  active
		Coordinates of corner 2 :   1.00  -2.00  -1.00  inactive
		Coordinates of corner 3 :   1.00  -2.00   14.00  active
		Coordinates of corner 4 :  -1.00  -2.00   14.00  inactive





                                  - - - - CYLINDER DATA - - - -

                                       COORDINATES IN METERS









                                - - - - - - FREQUENCY - - - - - -

                                   FREQUENCY= 5.0000E+002 MHZ 
                                   WAVELENGTH= 5.9960E-001 METERS 




                   APPROXIMATE INTEGRATION EMPLOYED FOR SEGMENTS MORE THAN    1.000 WAVELENGTHS APART



                              - - - STRUCTURE IMPEDANCE LOADING - - -

                                  THIS STRUCTURE IS NOT LOADED



                                 - - - ANTENNA ENVIRONMENT - - -

                                           FREE SPACE



                               - - - MATRIX TIMING - - -

                       FILL=    0.000 SEC.,  FACTOR=    0.000 SEC.



                                         - - - ANTENNA INPUT PARAMETERS - - -

  TAG   SEG.    VOLTAGE (VOLTS)         CURRENT (AMPS)         IMPEDANCE (OHMS)        ADMITTANCE (MHOS)      POWER
  NO.   NO.    REAL        IMAG.       REAL        IMAG.       REAL        IMAG.       REAL        IMAG.     (WATTS)
    1     1 1.0000E+000 0.0000E+000 7.5654E-003-3.5648E-004 1.3189E+002 6.2146E+000 7.5654E-003-3.5648E-004 3.7827E-003 



                            - - - CURRENTS AND LOCATION - - -

                                DISTANCES IN WAVELENGTHS


 SEG.  TAG    COORD. OF SEG. CENTER     SEG.            - - - CURRENT (AMPS) - - -
 NO.   NO.     X        Y        Z      LENGTH     REAL        IMAG.       MAG.        PHASE
    1    1  -0.3336   0.0000   0.0000  0.50033   7.565E-003 -3.565E-004  7.574E-003    -2.698 



                                 - - - CHARGE DENSITIES - - -

                                   DISTANCES IN WAVELENGTHS


 SEG.  TAG    COORD. OF SEG. CENTER     SEG.          CHARGE DENSITY (COULOMBS/METER)
 NO.   NO.     X        Y        Z      LENGTH     REAL        IMAG.       MAG.        PHASE
    1    1  -0.3336   0.0000   0.0000  0.50033  -0.000E+000  0.000E+000  0.000E+000    0.000 





                                       - - - POWER BUDGET - - -

                                          INPUT POWER   = 3.7827E-003 WATTS 
                                          RADIATED POWER= 3.7827E-003 WATTS 
                                          STRUCTURE LOSS= 0.0000E+000 WATTS 
                                          NETWORK LOSS  = 0.0000E+000 WATTS 
                                          EFFICIENCY    = 100.00 PERCENT






***** DATA CARD NO. 14   FC   1     0     0     0  0.00000E+000 0.00000E+000 0.00000E+000 0.00000E+000 0.00000E+000 0.00000E+000   
***** DATA CARD NO. 15   FC   1     1     1     0  0.00000E+000 0.00000E+000 0.00000E+000 0.00000E+000 0.00000E+000 0.00000E+000   
***** DATA CARD NO. 16   FC   6     0     0     0  0.00000E+000 0.00000E+000 0.00000E+000 0.00000E+000 0.00000E+000 0.00000E+000   
***** DATA CARD NO. 17   FC   1     1     0     0  0.00000E+000 0.00000E+000 0.00000E+000 0.00000E+000 0.00000E+000 0.00000E+000   
***** DATA CARD NO. 18   FC   1     1     0     0  0.00000E+000 0.00000E+000 0.00000E+000 0.00000E+000 0.00000E+000 0.00000E+000   
***** DATA CARD NO. 19   FC   1     1     0     0  0.00000E+000 0.00000E+000 0.00000E+000 0.00000E+000 0.00000E+000 0.00000E+000   



	 ----------------------- UTD FIELD COMPONENTS ------------------------ 

		General :
			Direct field

		Plate Field Components :
			Slope diffraction
			Corner diffraction
			Single reflection
			Double reflection

		Triple Plate Field Components :
			Reflection - reflection - reflection

		Cylinder End Cap Field Components :
			Diffraction
			Reflection

		Cylinder Field Components :
			Single reflection
			Single diffraction

		Cylinder - Plate Field Components :
			Plate reflection - cylinder reflection
			Cylinder reflection - plate reflection

	 ------------------------------------------------------------------------ 

***** DATA CARD NO. 20   NE   0    71    71     1  -1.00000E+000 -2.00000E+000 5.00000E+000 2.85710E-002 5.71430E-002 0.00000E+000   



                                  - - - NEAR ELECTRIC FIELDS - - -

           -  LOCATION  -                     -  EX  -               -  EY  -               -  EZ  -
       X          Y          Z          MAGNITUDE   PHASE      MAGNITUDE   PHASE      MAGNITUDE   PHASE
     METERS     METERS     METERS        VOLTS/M   DEGREES      VOLTS/M   DEGREES      VOLTS/M   DEGREES
     -1.0000    -2.0000     5.0000     0.000E+000     0.00    0.000E+000     0.00    0.000E+000     0.00 
     -0.9714    -2.0000     5.0000     8.207E-002    60.08    4.368E-003    58.01    1.092E-002    58.03 
     -0.9429    -2.0000     5.0000     8.225E-002    62.46    4.216E-003    60.40    1.054E-002    60.41 
     -0.9143    -2.0000     5.0000     8.243E-002    64.76    4.062E-003    62.70    1.016E-002    62.71 
     -0.8857    -2.0000     5.0000     7.727E-002    66.62    8.051E-003    80.75    5.494E-003   -23.24 
     -0.8571    -2.0000     5.0000     8.276E-002    69.08    3.752E-003    67.03    9.382E-003    67.04 
     -0.8286    -2.0000     5.0000     7.841E-002    68.99    7.078E-003   100.99    9.814E-003    -3.37 
     -0.8000    -2.0000     5.0000     8.306E-002    73.05    3.439E-003    71.00    8.598E-003    71.01 
     -0.7714    -2.0000     5.0000     8.320E-002    74.91    3.280E-003    72.85    8.203E-003    72.87 
     -0.7429    -2.0000     5.0000     6.298E-002    72.50    1.349E-002    78.07    1.200E-002   127.76 
     -0.7143    -2.0000     5.0000     8.347E-002    78.34    2.962E-003    76.29    7.406E-003    76.31 
     -0.6857    -2.0000     5.0000     1.113E-001    74.11    2.416E-002   135.75    1.547E-002    -1.22 
     -0.6571    -2.0000     5.0000     8.371E-002    81.42    2.640E-003    79.37    6.602E-003    79.38 
     -0.6286    -2.0000     5.0000     9.602E-002    74.07    1.400E-002  -164.70    1.686E-002    41.78 
     -0.6000    -2.0000     5.0000     1.269E-001    78.26    2.467E-002    50.46    2.979E-002  -114.77 
     -0.5714    -2.0000     5.0000     7.669E-002    87.14    7.553E-003    60.76    9.847E-003  -144.04 
     -0.5429    -2.0000     5.0000     1.028E-001    78.41    1.577E-002    56.95    3.785E-003  -169.78 
     -0.5143    -2.0000     5.0000     1.089E-001   113.19    1.291E-002    -7.63    1.265E-002   143.66 
     -0.4857    -2.0000     5.0000     8.426E-002    88.49    1.661E-003    86.45    4.153E-003    86.46 
     -0.4572    -2.0000     5.0000     1.078E-001    90.17    9.805E-003   -66.16    7.206E-003   140.68 
     -0.4286    -2.0000     5.0000     8.438E-002    90.12    1.331E-003    88.08    3.328E-003    88.09 
     -0.4000    -2.0000     5.0000     7.332E-002   104.12    1.489E-002    47.76    5.329E-003  -157.73 
     -0.3714    -2.0000     5.0000     8.448E-002    91.39    9.993E-004    89.35    2.499E-003    89.37 
     -0.3429    -2.0000     5.0000     8.452E-002    91.89    8.332E-004    89.85    2.083E-003    89.87 
     -0.3143    -2.0000     5.0000     1.102E-001   112.47    1.183E-002   -17.40    3.076E-002   156.67 
     -0.2857    -2.0000     5.0000     8.458E-002    92.62    5.003E-004    90.58    1.251E-003    90.59 
     -0.2572    -2.0000     5.0000     8.460E-002    92.85    3.336E-004    90.81    8.342E-004    90.82 
     -0.2286    -2.0000     5.0000     1.073E-001   101.65    1.688E-002   -44.16    1.446E-002   134.30 
     -0.2000    -2.0000     5.0000     9.084E-002    98.21    6.567E-003   133.41    1.642E-002   -46.59 
     -0.1714    -2.0000     5.0000     5.663E-002    93.49    1.103E-002   -93.86    2.673E-002    85.99 
     -0.1429    -2.0000     5.0000     6.957E-002   124.49    1.188E-002    39.97    3.078E-002  -137.63 
     -0.1143    -2.0000     5.0000     6.167E-002  -176.46    2.310E-002    53.65    1.786E-002   -65.80 
     -0.0857    -2.0000     5.0000     8.455E-002    92.30    6.667E-004   -89.74    1.667E-003   -89.73 
     -0.0572    -2.0000     5.0000     8.345E-002    87.70    5.114E-003  -160.60    1.205E-002     0.39 
     -0.0286    -2.0000     5.0000     7.592E-002   106.00    1.168E-002    29.10    4.653E-003  -104.54 
     -0.0000    -2.0000     5.0000     9.772E-002    92.47    9.706E-003   175.25    2.530E-002   -18.03 
      0.0286    -2.0000     5.0000     8.578E-002    69.82    1.729E-002    -6.58    1.473E-002  -169.10 
      0.0571    -2.0000     5.0000     1.027E-001    92.22    1.392E-002   100.19    1.650E-002   -83.67 
      0.0857    -2.0000     5.0000     1.358E-001    89.92    9.826E-003   119.44    3.185E-002   -68.72 
      0.1143    -2.0000     5.0000     4.666E-002    78.87    4.679E-003   100.46    7.761E-003   -90.03 
      0.1428    -2.0000     5.0000     1.182E-001    97.28    1.501E-002   120.33    1.830E-002   -71.92 
      0.1714    -2.0000     5.0000     8.401E-002    85.36    2.153E-003   -96.68    5.383E-003   -96.67 
      0.2000    -2.0000     5.0000     8.392E-002    84.14    2.316E-003   -97.91    5.791E-003   -97.90 
      0.2286    -2.0000     5.0000     8.381E-002    82.82    2.478E-003   -99.22    6.197E-003   -99.21 
      0.2571    -2.0000     5.0000     8.371E-002    81.42    2.640E-003  -100.63    6.601E-003  -100.62 
      0.2857    -2.0000     5.0000     8.359E-002    79.93    2.801E-003  -102.12    7.004E-003  -102.11 
      0.3143    -2.0000     5.0000     1.022E-001    83.60    1.171E-002   120.07    1.372E-002   -86.53 
      0.3428    -2.0000     5.0000     1.052E-001    78.42    1.931E-002  -101.50    5.758E-003    85.52 
      0.3714    -2.0000     5.0000     5.975E-002    87.63    2.023E-002  -124.34    7.181E-003    28.90 
      0.4000    -2.0000     5.0000     8.306E-002  -106.94    3.439E-003  -108.99    8.598E-003    71.01 
      0.4286    -2.0000     5.0000     9.516E-002    86.79    1.264E-002   152.05    1.315E-002   -82.43 
      0.4571    -2.0000     5.0000     8.276E-002    69.08    3.752E-003  -112.97    9.382E-003  -112.96 
      0.4857    -2.0000     5.0000     8.260E-002    66.97    3.908E-003  -115.09    9.771E-003  -115.08 
      0.5143    -2.0000     5.0000     8.243E-002    64.76    4.062E-003  -117.30    1.016E-002  -117.29 
      0.5428    -2.0000     5.0000     8.225E-002    62.46    4.216E-003  -119.60    1.054E-002  -119.59 
      0.5714    -2.0000     5.0000     8.643E-002    26.05    1.527E-002    12.27    3.934E-002  -122.66 
      0.6000    -2.0000     5.0000     5.357E-002    80.33    1.183E-002   -78.81    1.080E-002  -165.20 
      0.6285    -2.0000     5.0000     7.250E-002    34.92    9.355E-003   136.47    3.488E-002   -85.23 
      0.6571    -2.0000     5.0000     8.150E-002    52.40    4.819E-003  -129.67    1.205E-002  -129.66 
      0.6857    -2.0000     5.0000     8.274E-002    61.49    1.382E-002   175.47    2.752E-002   -49.97 
      0.7143    -2.0000     5.0000     8.108E-002    46.84    5.115E-003  -135.23    1.279E-002  -135.22 
      0.7428    -2.0000     5.0000     8.087E-002    43.93    5.260E-003  -138.15    1.315E-002  -138.13 
      0.7714    -2.0000     5.0000     8.064E-002    40.93    5.405E-003  -141.14    1.352E-002  -141.13 
      0.8000    -2.0000     5.0000     8.420E-002    40.10    5.359E-003   169.88    2.078E-002  -116.64 
      0.8285    -2.0000     5.0000     8.018E-002    34.68    5.690E-003  -147.40    1.423E-002  -147.39 
      0.8571    -2.0000     5.0000     6.579E-002    43.81    1.427E-002   179.33    1.793E-002   -55.10 
      0.8857    -2.0000     5.0000     7.970E-002    28.08    5.970E-003  -154.00    1.493E-002  -153.99 
      0.9143    -2.0000     5.0000     8.428E-002    24.14    2.298E-003   175.37    2.557E-002  -151.53 
      0.9428    -2.0000     5.0000     7.920E-002    21.14    6.245E-003  -160.95    1.562E-002  -160.94 
      0.9714    -2.0000     5.0000     7.894E-002    17.54    6.380E-003  -164.55    1.595E-002  -164.54 
      1.0000    -2.0000     5.0000     7.290E-002     9.96    1.184E-002  -156.88    6.817E-003   133.07 
     -1.0000    -1.9429     5.0000     4.284E-002  -124.55    1.391E-002  -100.77    3.795E-002    99.16 
     -0.9714    -1.9429     5.0000     2.244E-001  -164.93    3.464E-002    91.32    1.491E-002   -83.38 
     -0.9429    -1.9429     5.0000     2.224E-001  -166.28    6.189E-002   107.11    1.904E-002   -43.49 
     -0.9143    -1.9429     5.0000     2.185E-001  -168.26    8.767E-002   112.97    2.813E-002   -23.20 
     -0.8857    -1.9429     5.0000     2.129E-001  -170.83    1.092E-001   115.86    3.814E-002   -13.62 
     -0.8571    -1.9429     5.0000     2.057E-001  -173.97    1.249E-001   117.38    4.722E-002    -8.61 
     -0.8286    -1.9429     5.0000     1.970E-001  -177.63    1.338E-001   118.02    5.429E-002    -5.91 
     -0.8000    -1.9429     5.0000     1.872E-001   178.25    1.351E-001   117.91    5.861E-002    -4.65 
     -0.7714    -1.9429     5.0000     1.764E-001   173.74    1.287E-001   116.96    5.966E-002    -4.54 
     -0.7429    -1.9429     5.0000     1.647E-001   168.94    1.150E-001   114.79    5.720E-002    -5.65 
     -0.7143    -1.9429     5.0000     1.519E-001   163.98    9.475E-002   110.46    5.127E-002    -8.41 
     -0.6857    -1.9429     5.0000     1.381E-001   158.96    7.000E-002   101.26    4.233E-002   -14.11 
     -0.6571    -1.9429     5.0000     1.230E-001   154.03    4.592E-002    78.33    3.157E-002   -26.27 
     -0.6286    -1.9429     5.0000     1.062E-001   149.29    3.949E-002    28.48    2.252E-002   -54.36 
     -0.6000    -1.9429     5.0000     8.746E-002   144.84    6.197E-002    -7.91    2.338E-002   -99.23 
     -0.5714    -1.9429     5.0000     6.661E-002   140.78    9.505E-002   -22.15    3.525E-002  -127.34 
     -0.5429    -1.9429     5.0000     4.356E-002   137.27    1.291E-001   -28.60    5.082E-002  -139.74 
     -0.5143    -1.9429     5.0000     1.837E-002   135.19    1.606E-001   -32.07    6.635E-002  -145.88 
     -0.4857    -1.9429     5.0000     8.750E-003   -55.55    1.873E-001   -34.11    8.006E-002  -149.32 
     -0.4572    -1.9429     5.0000     3.721E-002   -54.38    2.078E-001   -35.37    9.076E-002  -151.39 
     -0.4286    -1.9429     5.0000     6.648E-002   -56.28    2.210E-001   -36.14    9.761E-002  -152.66 
     -0.4000    -1.9429     5.0000     9.577E-002   -58.19    2.261E-001   -36.55    1.000E-001  -153.37 
     -0.3714    -1.9429     5.0000     1.242E-001   -59.90    2.228E-001   -36.66    9.762E-002  -153.65 
     -0.3429    -1.9429     5.0000     1.509E-001   -61.38    2.113E-001   -36.47    9.045E-002  -153.49 
     -0.3143    -1.9429     5.0000     1.748E-001   -62.62    1.921E-001   -35.91    7.874E-002  -152.78 
     -0.2857    -1.9429     5.0000     1.953E-001   -63.63    1.661E-001   -34.82    6.305E-002  -151.15 
     -0.2572    -1.9429     5.0000     2.114E-001   -64.40    1.346E-001   -32.83    4.423E-002  -147.40 
     -0.2286    -1.9429     5.0000     2.226E-001   -64.94    9.930E-002   -28.93    2.374E-002  -135.92 
     -0.2000    -1.9429     5.0000     2.285E-001   -65.25    6.255E-002   -19.80    9.824E-003   -63.56 
     -0.1714    -1.9429     5.0000     2.289E-001   -65.32    3.082E-002    11.93    2.592E-002    -2.24 
     -0.1429    -1.9429     5.0000     2.237E-001   -65.14    3.345E-002    86.55    4.686E-002     7.97 
     -0.1143    -1.9429     5.0000     2.134E-001   -64.70    6.357E-002   112.63    6.619E-002    11.70 
     -0.0857    -1.9429     5.0000     1.983E-001   -63.96    9.437E-002   120.75    8.253E-002    13.66 
     -0.0572    -1.9429     5.0000     1.790E-001   -62.90    1.210E-001   124.52    9.498E-002    14.95 
     -0.0286    -1.9429     5.0000     1.564E-001   -61.44    1.418E-001   126.71    1.029E-001    15.95 
     -0.0000    -1.9429     5.0000     1.314E-001   -59.48    1.559E-001   128.22    1.060E-001    16.88 
      0.0286    -1.9429     5.0000     1.049E-001   -56.84    1.629E-001   129.44    1.042E-001    17.87 
      0.0571    -1.9429     5.0000     7.798E-002   -53.13    1.628E-001   130.61    9.781E-002    19.10 
      0.0857    -1.9429     5.0000     5.147E-002   -47.25    1.560E-001   131.93    8.722E-002    20.80 
      0.1143    -1.9429     5.0000     2.657E-002   -34.48    1.432E-001   133.63    7.324E-002    23.38 
      0.1428    -1.9429     5.0000     9.285E-003    33.01    1.254E-001   136.06    5.687E-002    27.82 
      0.1714    -1.9429     5.0000     2.304E-002   108.39    1.041E-001   139.87    3.955E-002    36.72 
      0.2000    -1.9429     5.0000     4.183E-002   123.46    8.099E-002   146.40    2.410E-002    58.91 
      0.2286    -1.9429     5.0000     5.897E-002   131.89    5.884E-002   158.75    1.890E-002   110.04 
      0.2571    -1.9429     5.0000     7.421E-002   138.90    4.262E-002  -176.99    2.852E-002   147.77 
      0.2857    -1.9429     5.0000     8.781E-002   145.53    4.000E-002  -141.73    4.179E-002   161.65 
      0.3143    -1.9429     5.0000     1.001E-001   152.04    5.031E-002  -115.94    5.374E-002   167.42 
      0.3428    -1.9429     5.0000     1.115E-001   158.45    6.446E-002  -103.34    6.294E-002   170.04 
      0.3714    -1.9429     5.0000     1.223E-001   164.67    7.716E-002   -97.69    6.886E-002   171.06 
      0.4000    -1.9429     5.0000     1.326E-001   170.57    8.636E-002   -95.67    7.138E-002   171.10 
      0.4286    -1.9429     5.0000     1.422E-001   176.06    9.132E-002   -95.93    7.061E-002   170.37 
      0.4571    -1.9429     5.0000     1.511E-001  -178.93    9.197E-002   -98.03    6.693E-002   168.94 
      0.4857    -1.9429     5.0000     1.590E-001  -174.44    8.876E-002  -101.95    6.084E-002   166.76 
      0.5143    -1.9429     5.0000     1.656E-001  -170.47    8.259E-002  -108.01    5.299E-002   163.68 
      0.5428    -1.9429     5.0000     1.706E-001  -167.00    7.483E-002  -116.79    4.409E-002   159.38 
      0.5714    -1.9429     5.0000     1.738E-001  -164.01    6.734E-002  -128.93    3.490E-002   153.28 
      0.6000    -1.9429     5.0000     1.750E-001  -161.45    6.223E-002  -144.43    2.614E-002   144.33 
      0.6285    -1.9429     5.0000     1.745E-001  -159.30    6.110E-002  -161.66    1.858E-002   130.56 
      0.6571    -1.9429     5.0000     1.722E-001  -157.53    6.392E-002  -177.77    1.296E-002   108.90 
      0.6857    -1.9429     5.0000     1.684E-001  -156.12    6.897E-002   169.10    9.954E-003    78.12 
      0.7143    -1.9429     5.0000     1.635E-001  -155.05    7.410E-002   159.04    9.248E-003    45.77 
      0.7428    -1.9429     5.0000     1.577E-001  -154.32    7.752E-002   151.38    9.472E-003    18.88 
      0.7714    -1.9429     5.0000     1.515E-001  -153.93    7.801E-002   145.36    9.715E-003    -4.58 
      0.8000    -1.9429     5.0000     1.453E-001  -153.88    7.487E-002   140.37    1.002E-002   -27.90 
      0.8285    -1.9429     5.0000     1.393E-001  -154.17    6.786E-002   135.87    1.087E-002   -51.10 
      0.8571    -1.9429     5.0000     1.340E-001  -154.79    5.708E-002   131.27    1.254E-002   -71.30 
      0.8857    -1.9429     5.0000     1.296E-001  -155.72    4.300E-002   125.49    1.478E-002   -86.48 
      0.9143    -1.9429     5.0000     1.262E-001  -156.94    2.658E-002   114.91    1.703E-002   -96.92 
      0.9428    -1.9429     5.0000     1.238E-001  -158.40    1.132E-002    74.37    1.876E-002  -103.61 
      0.9714    -1.9429     5.0000     1.225E-001  -160.04    1.755E-002   -12.38    1.954E-002  -107.31 
      1.0000    -1.9429     5.0000     1.173E-001  -171.32    1.344E-002   -74.40    9.514E-003  -125.67 
     -1.0000    -1.8857     5.0000     8.244E-002   -97.85    4.358E-003   -99.92    1.156E-002    80.08 
     -0.9714    -1.8857     5.0000     3.330E-001  -161.00    2.783E-002   111.51    1.653E-002   -54.32 
     -0.9429    -1.8857     5.0000     3.298E-001  -162.45    5.502E-002   122.04    2.902E-002   -13.83 
     -0.9143    -1.8857     5.0000     3.249E-001  -164.66    8.006E-002   125.67    4.588E-002    -0.70 
     -0.8857    -1.8857     5.0000     3.185E-001  -167.55    1.011E-001   127.52    6.187E-002     4.73 
     -0.8571    -1.8857     5.0000     3.109E-001  -171.05    1.167E-001   128.57    7.511E-002     7.29 
     -0.8286    -1.8857     5.0000     3.025E-001  -175.06    1.261E-001   129.11    8.443E-002     8.35 
     -0.8000    -1.8857     5.0000     2.934E-001  -179.42    1.286E-001   129.24    8.901E-002     8.34 
     -0.7714    -1.8857     5.0000     2.835E-001   176.02    1.239E-001   128.90    8.833E-002     7.32 
     -0.7429    -1.8857     5.0000     2.725E-001   171.42    1.122E-001   127.94    8.230E-002     5.02 
     -0.7143    -1.8857     5.0000     2.599E-001   166.96    9.408E-002   125.91    7.129E-002     0.66 
     -0.6857    -1.8857     5.0000     2.449E-001   162.78    7.066E-002   121.56    5.645E-002    -7.81 
     -0.6571    -1.8857     5.0000     2.268E-001   159.00    4.400E-002   110.25    4.073E-002   -26.12 
     -0.6286    -1.8857     5.0000     2.049E-001   155.74    2.228E-002    66.00    3.271E-002   -64.32 
     -0.6000    -1.8857     5.0000     1.787E-001   153.14    3.476E-002    -2.59    4.295E-002  -103.65 
     -0.5714    -1.8857     5.0000     1.478E-001   151.45    6.487E-002   -21.18    6.443E-002  -122.97 
     -0.5429    -1.8857     5.0000     1.125E-001   151.26    9.590E-002   -27.44    8.850E-002  -132.02 
     -0.5143    -1.8857     5.0000     7.344E-002   154.58    1.244E-001   -30.35    1.114E-001  -136.87 
     -0.4857    -1.8857     5.0000     3.359E-002   173.80    1.486E-001   -31.91    1.311E-001  -139.73 
     -0.4572    -1.8857     5.0000     2.858E-002   -90.90    1.671E-001   -32.77    1.459E-001  -141.49 
     -0.4286    -1.8857     5.0000     7.136E-002   -63.41    1.791E-001   -33.22    1.548E-001  -142.55 
     -0.4000    -1.8857     5.0000     1.188E-001   -57.89    1.839E-001   -33.35    1.570E-001  -143.09 
     -0.3714    -1.8857     5.0000     1.659E-001   -56.03    1.814E-001   -33.21    1.523E-001  -143.17 
     -0.3429    -1.8857     5.0000     2.106E-001   -55.25    1.716E-001   -32.75    1.405E-001  -142.75 
     -0.3143    -1.8857     5.0000     2.513E-001   -54.84    1.551E-001   -31.88    1.223E-001  -141.62 
     -0.2857    -1.8857     5.0000     2.866E-001   -54.52    1.328E-001   -30.37    9.839E-002  -139.30 
     -0.2572    -1.8857     5.0000     3.153E-001   -54.16    1.059E-001   -27.65    7.029E-002  -134.27 
     -0.2286    -1.8857     5.0000     3.366E-001   -53.68    7.593E-002   -22.23    4.057E-002  -120.34 
     -0.2000    -1.8857     5.0000     3.498E-001   -53.02    4.577E-002    -8.67    2.123E-002   -62.73 
     -0.1714    -1.8857     5.0000     3.546E-001   -52.15    2.507E-002    37.77    4.019E-002    -3.72 
     -0.1429    -1.8857     5.0000     3.511E-001   -50.99    3.735E-002    97.48    7.035E-002    10.72 
     -0.1143    -1.8857     5.0000     3.397E-001   -49.50    6.352E-002   115.88    9.926E-002    16.12 
     -0.0857    -1.8857     5.0000     3.211E-001   -47.58    8.877E-002   122.59    1.242E-001    18.91 
     -0.0572    -1.8857     5.0000     2.964E-001   -45.13    1.100E-001   125.83    1.438E-001    20.66 
     -0.0286    -1.8857     5.0000     2.669E-001   -41.98    1.258E-001   127.64    1.570E-001    21.93 
     -0.0000    -1.8857     5.0000     2.342E-001   -37.91    1.357E-001   128.76    1.632E-001    23.00 
      0.0286    -1.8857     5.0000     1.998E-001   -32.54    1.391E-001   129.50    1.625E-001    24.04 
      0.0571    -1.8857     5.0000     1.657E-001   -25.34    1.363E-001   130.06    1.548E-001    25.20 
      0.0857    -1.8857     5.0000     1.339E-001   -15.44    1.275E-001   130.58    1.410E-001    26.67 
      0.1143    -1.8857     5.0000     1.068E-001    -1.64    1.135E-001   131.22    1.219E-001    28.75 
      0.1428    -1.8857     5.0000     8.703E-002    17.15    9.507E-002   132.22    9.874E-002    32.05 
      0.1714    -1.8857     5.0000     7.685E-002    40.13    7.348E-002   134.14    7.328E-002    38.00 
      0.2000    -1.8857     5.0000     7.581E-002    63.45    5.006E-002   138.48    4.810E-002    50.91 
      0.2286    -1.8857     5.0000     8.060E-002    83.65    2.691E-002   151.86    2.968E-002    84.66 
      0.2571    -1.8857     5.0000     8.767E-002   100.36    1.331E-002  -144.12    3.248E-002   136.72 
      0.2857    -1.8857     5.0000     9.512E-002   114.74    2.737E-002   -88.79    5.031E-002   161.57 
      0.3143    -1.8857     5.0000     1.025E-001   127.85    4.615E-002   -77.87    6.935E-002   171.06 
      0.3428    -1.8857     5.0000     1.103E-001   140.23    6.242E-002   -75.05    8.549E-002   175.23 
      0.3714    -1.8857     5.0000     1.191E-001   151.94    7.488E-002   -74.94    9.742E-002   177.06 
      0.4000    -1.8857     5.0000     1.296E-001   162.80    8.302E-002   -76.30    1.047E-001   177.57 
      0.4286    -1.8857     5.0000     1.419E-001   172.53    8.676E-002   -78.85    1.072E-001   177.17 
      0.4571    -1.8857     5.0000     1.556E-001  -179.06    8.634E-002   -82.64    1.054E-001   176.00 
      0.4857    -1.8857     5.0000     1.702E-001  -172.00    8.239E-002   -87.96    9.974E-002   174.06 
      0.5143    -1.8857     5.0000     1.849E-001  -166.21    7.593E-002   -95.33    9.111E-002   171.25 
      0.5428    -1.8857     5.0000     1.988E-001  -161.57    6.840E-002  -105.46    8.042E-002   167.38 
      0.5714    -1.8857     5.0000     2.115E-001  -157.92    6.172E-002  -118.97    6.870E-002   162.11 
      0.6000    -1.8857     5.0000     2.223E-001  -155.12    5.790E-002  -135.52    5.703E-002   155.01 
      0.6285    -1.8857     5.0000     2.311E-001  -153.06    5.812E-002  -152.89    4.638E-002   145.56 
      0.6571    -1.8857     5.0000     2.376E-001  -151.63    6.183E-002  -168.24    3.759E-002   133.45 
      0.6857    -1.8857     5.0000     2.420E-001  -150.75    6.714E-002   179.79    3.102E-002   119.11 
      0.7143    -1.8857     5.0000     2.445E-001  -150.33    7.200E-002   170.96    2.641E-002   104.08 
      0.7428    -1.8857     5.0000     2.454E-001  -150.31    7.485E-002   164.54    2.284E-002    90.30 
      0.7714    -1.8857     5.0000     2.450E-001  -150.61    7.468E-002   159.87    1.927E-002    78.74 
      0.8000    -1.8857     5.0000     2.438E-001  -151.15    7.093E-002   156.55    1.496E-002    69.06 
      0.8285    -1.8857     5.0000     2.420E-001  -151.85    6.343E-002   154.38    9.653E-003    59.36 
      0.8571    -1.8857     5.0000     2.400E-001  -152.63    5.233E-002   153.47    3.627E-003    36.98 
      0.8857    -1.8857     5.0000     2.381E-001  -153.40    3.813E-002   154.58    4.081E-003   -92.71 
      0.9143    -1.8857     5.0000     2.362E-001  -154.10    2.172E-002   161.57    1.082E-002  -110.41 
      0.9428    -1.8857     5.0000     2.344E-001  -154.67    7.481E-003  -143.03    1.730E-002  -114.80 
      0.9714    -1.8857     5.0000     2.327E-001  -155.07    1.910E-002   -62.70    2.284E-002  -116.21 
      1.0000    -1.8857     5.0000     2.192E-001  -164.82    2.055E-002   -81.36    9.485E-003  -136.89 
     -1.0000    -1.8286     5.0000     8.273E-002   -86.04    4.272E-003   -88.12    1.168E-002    91.88 
     -0.9714    -1.8286     5.0000     3.535E-001  -155.34    2.319E-002   139.40    1.822E-002   -33.52 
     -0.9429    -1.8286     5.0000     3.501E-001  -157.10    4.852E-002   140.90    3.927E-002     2.49 
     -0.9143    -1.8286     5.0000     3.453E-001  -159.82    7.166E-002   141.66    6.315E-002    11.77 
     -0.8857    -1.8286     5.0000     3.395E-001  -163.43    9.135E-002   142.22    8.467E-002    15.47 
     -0.8571    -1.8286     5.0000     3.334E-001  -167.79    1.065E-001   142.67    1.019E-001    17.12 
     -0.8286    -1.8286     5.0000     3.276E-001  -172.73    1.163E-001   143.05    1.134E-001    17.67 
     -0.8000    -1.8286     5.0000     3.221E-001  -178.02    1.201E-001   143.36    1.184E-001    17.41 
     -0.7714    -1.8286     5.0000     3.167E-001   176.58    1.178E-001   143.59    1.162E-001    16.31 
     -0.7429    -1.8286     5.0000     3.107E-001   171.30    1.095E-001   143.73    1.068E-001    14.10 
     -0.7143    -1.8286     5.0000     3.029E-001   166.35    9.545E-002   143.72    9.078E-002     9.98 
     -0.6857    -1.8286     5.0000     2.920E-001   161.85    7.654E-002   143.47    6.963E-002     1.78 
     -0.6571    -1.8286     5.0000     2.767E-001   157.88    5.369E-002   142.61    4.719E-002   -17.37 
     -0.6286    -1.8286     5.0000     2.558E-001   154.48    2.814E-002   139.47    3.642E-002   -62.27 
     -0.6000    -1.8286     5.0000     2.285E-001   151.70    3.575E-003    69.71    5.305E-002  -104.46 
     -0.5714    -1.8286     5.0000     1.943E-001   149.61    2.663E-002   -25.41    8.306E-002  -121.94 
     -0.5429    -1.8286     5.0000     1.533E-001   148.42    5.241E-002   -28.86    1.151E-001  -129.68 
     -0.5143    -1.8286     5.0000     1.060E-001   148.87    7.566E-002   -29.76    1.449E-001  -133.76 
     -0.4857    -1.8286     5.0000     5.385E-002   154.96    9.515E-002   -30.01    1.699E-001  -136.16 
     -0.4572    -1.8286     5.0000     1.551E-002  -110.91    1.099E-001   -29.95    1.885E-001  -137.61 
     -0.4286    -1.8286     5.0000     6.732E-002   -55.51    1.192E-001   -29.68    1.993E-001  -138.47 
     -0.4000    -1.8286     5.0000     1.276E-001   -50.46    1.227E-001   -29.21    2.014E-001  -138.85 
     -0.3714    -1.8286     5.0000     1.874E-001   -49.00    1.202E-001   -28.48    1.945E-001  -138.81 
     -0.3429    -1.8286     5.0000     2.443E-001   -48.36    1.119E-001   -27.37    1.787E-001  -138.27 
     -0.3143    -1.8286     5.0000     2.962E-001   -47.92    9.834E-002   -25.63    1.547E-001  -137.02 
     -0.2857    -1.8286     5.0000     3.415E-001   -47.48    8.042E-002   -22.68    1.236E-001  -134.48 
     -0.2572    -1.8286     5.0000     3.786E-001   -46.91    5.937E-002   -17.01    8.725E-002  -128.96 
     -0.2286    -1.8286     5.0000     4.064E-001   -46.16    3.739E-002    -3.44    4.941E-002  -113.24 
     -0.2000    -1.8286     5.0000     4.240E-001   -45.17    2.173E-002    38.95    2.819E-002   -50.79 
     -0.1714    -1.8286     5.0000     4.313E-001   -43.88    2.980E-002    96.62    5.531E-002     1.86 
     -0.1429    -1.8286     5.0000     4.283E-001   -42.21    5.024E-002   116.79    9.430E-002    15.04 
     -0.1143    -1.8286     5.0000     4.157E-001   -40.08    7.089E-002   124.13    1.315E-001    20.12 
     -0.0857    -1.8286     5.0000     3.946E-001   -37.36    8.877E-002   127.47    1.636E-001    22.74 
     -0.0572    -1.8286     5.0000     3.665E-001   -33.89    1.026E-001   129.09    1.888E-001    24.35 
     -0.0286    -1.8286     5.0000     3.335E-001   -29.44    1.115E-001   129.77    2.059E-001    25.46 
     -0.0000    -1.8286     5.0000     2.977E-001   -23.73    1.152E-001   129.84    2.142E-001    26.34 
      0.0286    -1.8286     5.0000     2.619E-001   -16.40    1.134E-001   129.41    2.134E-001    27.14 
      0.0571    -1.8286     5.0000     2.290E-001    -7.07    1.065E-001   128.49    2.038E-001    27.98 
      0.0857    -1.8286     5.0000     2.016E-001     4.45    9.482E-002   126.97    1.862E-001    29.01 
      0.1143    -1.8286     5.0000     1.820E-001    17.86    7.908E-002   124.57    1.615E-001    30.44 
      0.1428    -1.8286     5.0000     1.707E-001    32.13    6.025E-002   120.51    1.314E-001    32.71 
      0.1714    -1.8286     5.0000     1.661E-001    45.95    3.965E-002   112.25    9.766E-002    36.84 
      0.2000    -1.8286     5.0000     1.651E-001    58.38    2.016E-002    87.37    6.292E-002    46.09 
      0.2286    -1.8286     5.0000     1.647E-001    69.29    1.659E-002    10.17    3.328E-002    75.00 
      0.2571    -1.8286     5.0000     1.624E-001    79.03    3.349E-002   -25.08    3.213E-002   142.05 
      0.2857    -1.8286     5.0000     1.571E-001    88.23    5.208E-002   -35.89    5.743E-002   171.13 
      0.3143    -1.8286     5.0000     1.485E-001    97.61    6.848E-002   -41.53    8.435E-002  -179.98 
      0.3428    -1.8286     5.0000     1.377E-001   107.98    8.155E-002   -45.56    1.073E-001  -176.53 
      0.3714    -1.8286     5.0000     1.265E-001   120.20    9.069E-002   -49.07    1.249E-001  -175.26 
      0.4000    -1.8286     5.0000     1.176E-001   134.84    9.564E-002   -52.57    1.363E-001  -175.17 
      0.4286    -1.8286     5.0000     1.144E-001   151.51    9.640E-002   -56.39    1.416E-001  -175.91 
      0.4571    -1.8286     5.0000     1.189E-001   168.28    9.329E-002   -60.87    1.412E-001  -177.38 
      0.4857    -1.8286     5.0000     1.310E-001  -177.15    8.693E-002   -66.44    1.356E-001  -179.60 
      0.5143    -1.8286     5.0000     1.484E-001  -165.86    7.827E-002   -73.69    1.259E-001   177.33 
      0.5428    -1.8286     5.0000     1.684E-001  -157.65    6.863E-002   -83.48    1.134E-001   173.20 
      0.5714    -1.8286     5.0000     1.888E-001  -151.87    5.980E-002   -96.75    9.930E-002   167.70 
      0.6000    -1.8286     5.0000     2.083E-001  -147.91    5.388E-002  -113.75    8.508E-002   160.49 
      0.6285    -1.8286     5.0000     2.257E-001  -145.31    5.241E-002  -132.54    7.208E-002   151.24 
      0.6571    -1.8286     5.0000     2.408E-001  -143.74    5.514E-002  -149.54    6.138E-002   139.96 
      0.6857    -1.8286     5.0000     2.533E-001  -142.94    6.011E-002  -162.62    5.344E-002   127.38 
      0.7143    -1.8286     5.0000     2.634E-001  -142.75    6.512E-002  -171.85    4.786E-002   114.99 
      0.7428    -1.8286     5.0000     2.712E-001  -143.01    6.849E-002  -178.11    4.346E-002   104.29 
      0.7714    -1.8286     5.0000     2.771E-001  -143.58    6.921E-002   177.87    3.894E-002    96.18 
      0.8000    -1.8286     5.0000     2.816E-001  -144.34    6.678E-002   175.69    3.333E-002    91.01 
      0.8285    -1.8286     5.0000     2.849E-001  -145.17    6.109E-002   175.34    2.623E-002    89.27 
      0.8571    -1.8286     5.0000     2.873E-001  -145.96    5.242E-002   177.28    1.781E-002    93.23 
      0.8857    -1.8286     5.0000     2.889E-001  -146.59    4.153E-002  -176.98    9.341E-003   115.58 
      0.9143    -1.8286     5.0000     2.899E-001  -147.00    3.008E-002  -163.16    8.197E-003  -170.54 
      0.9428    -1.8286     5.0000     2.903E-001  -147.12    2.234E-002  -132.07    1.663E-002  -138.41 
      0.9714    -1.8286     5.0000     2.901E-001  -146.90    2.523E-002   -91.60    2.597E-002  -129.07 
      1.0000    -1.8286     5.0000     2.768E-001  -149.23    3.017E-003   -83.77    2.143E-002  -106.54 
     -1.0000    -1.7714     5.0000     1.202E-001   -58.04    5.256E-003  -165.10    1.077E-002    95.47 
     -0.9714    -1.7714     5.0000     2.877E-001  -142.19    2.153E-002   170.20    1.889E-002   -15.87 
     -0.9429    -1.7714     5.0000     2.839E-001  -144.59    4.332E-002   162.33    4.810E-002    14.68 
     -0.9143    -1.7714     5.0000     2.782E-001  -148.42    6.372E-002   160.10    7.836E-002    21.31 
     -0.8857    -1.7714     5.0000     2.719E-001  -153.63    8.146E-002   159.25    1.050E-001    23.90 
     -0.8571    -1.7714     5.0000     2.665E-001  -160.03    9.563E-002   158.96    1.261E-001    25.03 
     -0.8286    -1.7714     5.0000     2.632E-001  -167.31    1.055E-001   158.97    1.399E-001    25.38 
     -0.8000    -1.7714     5.0000     2.625E-001  -175.00    1.107E-001   159.17    1.456E-001    25.13 
     -0.7714    -1.7714     5.0000     2.641E-001   177.40    1.110E-001   159.52    1.425E-001    24.27 
     -0.7429    -1.7714     5.0000     2.667E-001   170.30    1.064E-001   160.02    1.306E-001    22.58 
     -0.7143    -1.7714     5.0000     2.682E-001   163.95    9.743E-002   160.69    1.104E-001    19.45 
     -0.6857    -1.7714     5.0000     2.666E-001   158.43    8.453E-002   161.60    8.353E-002    13.21 
     -0.6571    -1.7714     5.0000     2.597E-001   153.71    6.852E-002   162.91    5.327E-002    -2.31 
     -0.6286    -1.7714     5.0000     2.460E-001   149.69    5.036E-002   165.04    3.346E-002   -50.57 
     -0.6000    -1.7714     5.0000     2.242E-001   146.22    3.118E-002   169.44    5.243E-002  -104.31 
     -0.5714    -1.7714     5.0000     1.937E-001   143.15    1.255E-002  -174.24    8.941E-002  -122.15 
     -0.5429    -1.7714     5.0000     1.546E-001   140.21    8.940E-003   -57.05    1.279E-001  -129.13 
     -0.5143    -1.7714     5.0000     1.075E-001   136.81    2.404E-002   -31.71    1.631E-001  -132.65 
     -0.4857    -1.7714     5.0000     5.369E-002   130.10    3.724E-002   -26.02    1.924E-001  -134.66 
     -0.4572    -1.7714     5.0000     1.196E-002    13.91    4.697E-002   -23.01    2.138E-001  -135.86 
     -0.4286    -1.7714     5.0000     7.092E-002   -33.61    5.267E-002   -20.62    2.259E-001  -136.55 
     -0.4000    -1.7714     5.0000     1.353E-001   -38.02    5.409E-002   -18.14    2.277E-001  -136.83 
     -0.3714    -1.7714     5.0000     1.991E-001   -39.75    5.127E-002   -15.00    2.188E-001  -136.74 
     -0.3429    -1.7714     5.0000     2.597E-001   -40.57    4.457E-002   -10.28    1.995E-001  -136.18 
     -0.3143    -1.7714     5.0000     3.148E-001   -40.89    3.485E-002    -1.82    1.706E-001  -134.92 
     -0.2857    -1.7714     5.0000     3.625E-001   -40.81    2.408E-002    16.85    1.335E-001  -132.31 
     -0.2572    -1.7714     5.0000     4.011E-001   -40.37    1.846E-002    59.86    9.042E-002  -126.33 
     -0.2286    -1.7714     5.0000     4.293E-001   -39.57    2.605E-002   102.52    4.639E-002  -106.62 
     -0.2000    -1.7714     5.0000     4.463E-001   -38.37    4.067E-002   120.72    3.268E-002   -26.99 
     -0.1714    -1.7714     5.0000     4.519E-001   -36.70    5.641E-002   128.57    7.306E-002    11.58 
     -0.1429    -1.7714     5.0000     4.466E-001   -34.47    7.105E-002   132.46    1.199E-001    20.86 
     -0.1143    -1.7714     5.0000     4.313E-001   -31.53    8.334E-002   134.44    1.634E-001    24.60 
     -0.0857    -1.7714     5.0000     4.077E-001   -27.71    9.240E-002   135.30    2.005E-001    26.54 
     -0.0572    -1.7714     5.0000     3.781E-001   -22.76    9.760E-002   135.36    2.293E-001    27.68 
     -0.0286    -1.7714     5.0000     3.455E-001   -16.36    9.858E-002   134.72    2.484E-001    28.42 
     -0.0000    -1.7714     5.0000     3.135E-001    -8.22    9.522E-002   133.35    2.571E-001    28.95 
      0.0286    -1.7714     5.0000     2.859E-001     1.84    8.765E-002   131.05    2.550E-001    29.37 
      0.0571    -1.7714     5.0000     2.661E-001    13.56    7.633E-002   127.34    2.425E-001    29.77 
      0.0857    -1.7714     5.0000     2.563E-001    26.10    6.207E-002   121.13    2.203E-001    30.24 
      0.1143    -1.7714     5.0000     2.557E-001    38.25    4.637E-002   109.67    1.899E-001    30.90 
      0.1428    -1.7714     5.0000     2.614E-001    49.00    3.268E-002    85.88    1.528E-001    32.03 
      0.1714    -1.7714     5.0000     2.694E-001    57.96    2.915E-002    44.13    1.111E-001    34.28 
      0.2000    -1.7714     5.0000     2.758E-001    65.23    3.987E-002    10.41    6.716E-002    40.01 
      0.2286    -1.7714     5.0000     2.779E-001    71.14    5.668E-002    -6.31    2.618E-002    66.65 
      0.2571    -1.7714     5.0000     2.740E-001    76.03    7.409E-002   -15.27    3.026E-002   168.23 
      0.2857    -1.7714     5.0000     2.630E-001    80.25    8.988E-002   -20.98    6.756E-002  -171.92 
      0.3143    -1.7714     5.0000     2.451E-001    84.10    1.029E-001   -25.20    1.024E-001  -167.48 
      0.3428    -1.7714     5.0000     2.206E-001    87.94    1.124E-001   -28.71    1.314E-001  -166.18 
      0.3714    -1.7714     5.0000     1.907E-001    92.20    1.180E-001   -31.93    1.535E-001  -166.15 
      0.4000    -1.7714     5.0000     1.569E-001    97.65    1.196E-001   -35.15    1.681E-001  -166.87 
      0.4286    -1.7714     5.0000     1.214E-001   105.77    1.172E-001   -38.59    1.752E-001  -168.19 
      0.4571    -1.7714     5.0000     8.803E-002   120.02    1.112E-001   -42.51    1.752E-001  -170.10 
      0.4857    -1.7714     5.0000     6.472E-002   147.11    1.022E-001   -47.25    1.690E-001  -172.69 
      0.5143    -1.7714     5.0000     6.443E-002  -175.61    9.103E-002   -53.25    1.577E-001  -176.10 
      0.5428    -1.7714     5.0000     8.548E-002  -150.00    7.879E-002   -61.23    1.429E-001   179.43 
      0.5714    -1.7714     5.0000     1.141E-001  -137.36    6.696E-002   -72.11    1.262E-001   173.59 
      0.6000    -1.7714     5.0000     1.432E-001  -131.13    5.739E-002   -86.80    1.094E-001   166.01 
      0.6285    -1.7714     5.0000     1.702E-001  -128.05    5.196E-002  -104.92    9.426E-002   156.43 
      0.6571    -1.7714     5.0000     1.940E-001  -126.72    5.146E-002  -123.52    8.208E-002   144.99 
      0.6857    -1.7714     5.0000     2.145E-001  -126.47    5.464E-002  -139.07    7.344E-002   132.57 
      0.7143    -1.7714     5.0000     2.318E-001  -126.91    5.920E-002  -150.35    6.774E-002   120.72 
      0.7428    -1.7714     5.0000     2.462E-001  -127.81    6.316E-002  -157.93    6.344E-002   110.83 
      0.7714    -1.7714     5.0000     2.581E-001  -128.97    6.523E-002  -162.70    5.886E-002   103.59 
      0.8000    -1.7714     5.0000     2.681E-001  -130.22    6.477E-002  -165.25    5.278E-002    99.26 
      0.8285    -1.7714     5.0000     2.765E-001  -131.43    6.158E-002  -165.83    4.468E-002    98.16 
      0.8571    -1.7714     5.0000     2.836E-001  -132.46    5.586E-002  -164.27    3.475E-002   101.54 
      0.8857    -1.7714     5.0000     2.897E-001  -133.19    4.816E-002  -159.86    2.416E-002   113.74 
      0.9143    -1.7714     5.0000     2.948E-001  -133.53    3.953E-002  -151.00    1.661E-002   146.92 
      0.9428    -1.7714     5.0000     2.991E-001  -133.43    3.186E-002  -134.86    1.921E-002  -166.72 
      0.9714    -1.7714     5.0000     3.025E-001  -132.86    2.814E-002  -109.93    2.913E-002  -142.80 
      1.0000    -1.7714     5.0000     2.666E-001  -132.25    2.984E-002   -62.25    1.879E-002   -98.64 
     -1.0000    -1.7143     5.0000     1.152E-001   -62.63    8.529E-003   129.48    5.698E-003   103.03 
     -0.9714    -1.7143     5.0000     2.083E-001  -103.83    2.144E-002  -162.14    1.874E-002     1.44 
     -0.9429    -1.7143     5.0000     1.995E-001  -106.56    3.910E-002  -175.40    5.530E-002    25.02 
     -0.9143    -1.7143     5.0000     1.854E-001  -111.22    5.626E-002  -179.98    9.109E-002    29.46 
     -0.8857    -1.7143     5.0000     1.960E-001  -142.03    6.625E-002   179.19    1.305E-001    27.18 
     -0.8571    -1.7143     5.0000     1.505E-001  -128.72    8.413E-002   176.80    1.469E-001    31.90 
     -0.8286    -1.7143     5.0000     1.370E-001  -142.70    9.349E-002   176.22    1.631E-001    32.12 
     -0.8000    -1.7143     5.0000     1.317E-001  -159.35    9.929E-002   175.94    1.699E-001    31.95 
     -0.7714    -1.7143     5.0000     1.461E-001  -166.58    7.969E-002  -169.93    1.740E-001    32.02 
     -0.7429    -1.7143     5.0000     1.475E-001   169.99    9.986E-002   175.83    1.533E-001    30.28 
     -0.7143    -1.7143     5.0000     1.613E-001   159.18    9.499E-002   175.84    1.304E-001    28.28 
     -0.6857    -1.7143     5.0000     1.730E-001   151.04    8.722E-002   175.80    9.942E-002    24.39 
     -0.6571    -1.7143     5.0000     1.256E-001   151.33    9.199E-002   169.50    5.448E-002    27.75 
     -0.6286    -1.7143     5.0000     1.777E-001   139.58    6.553E-002   175.03    2.918E-002   -24.07 
     -0.6000    -1.7143     5.0000     1.670E-001   134.91    5.313E-002   173.76    4.243E-002  -103.10 
     -0.5714    -1.7143     5.0000     1.467E-001   130.01    4.083E-002   171.07    8.440E-002  -123.18 
     -0.5429    -1.7143     5.0000     6.107E-002   133.34    3.805E-002   145.85    1.020E-001  -136.64 
     -0.5143    -1.7143     5.0000     8.073E-002   112.13    2.059E-002   153.41    1.662E-001  -132.50 
     -0.4857    -1.7143     5.0000     4.563E-002    79.45    1.551E-002   131.59    1.981E-001  -134.15 
     -0.4572    -1.7143     5.0000     5.114E-002    10.58    1.535E-002   107.99    2.211E-001  -135.13 
     -0.4286    -1.7143     5.0000     2.677E-002   -50.33    2.197E-002    40.28    2.264E-001  -132.65 
     -0.4000    -1.7143     5.0000     1.554E-001   -27.03    2.230E-002    95.98    2.345E-001  -135.93 
     -0.3714    -1.7143     5.0000     2.131E-001   -31.36    2.710E-002   101.68    2.237E-001  -135.85 
     -0.3429    -1.7143     5.0000     2.682E-001   -33.60    3.307E-002   109.93    2.015E-001  -135.38 
     -0.3143    -1.7143     5.0000     3.323E-001   -44.37    4.813E-002   124.09    1.492E-001  -140.97 
     -0.2857    -1.7143     5.0000     3.597E-001   -35.03    4.944E-002   125.67    1.269E-001  -131.78 
     -0.2572    -1.7143     5.0000     3.922E-001   -34.74    5.927E-002   131.57    7.879E-002  -125.28 
     -0.2286    -1.7143     5.0000     4.140E-001   -33.86    6.934E-002   136.13    3.135E-002   -94.20 
     -0.2000    -1.7143     5.0000     4.131E-001   -27.69    6.419E-002   137.96    4.099E-002    23.62 
     -0.1714    -1.7143     5.0000     4.237E-001   -30.13    8.703E-002   142.08    9.547E-002    22.56 
     -0.1429    -1.7143     5.0000     4.125E-001   -27.03    9.313E-002   143.84    1.478E-001    27.50 
     -0.1143    -1.7143     5.0000     3.926E-001   -22.81    9.652E-002   144.96    1.950E-001    29.58 
     -0.0857    -1.7143     5.0000     3.993E-001   -18.90    1.078E-001   145.65    2.373E-001    29.39 
     -0.0572    -1.7143     5.0000     3.381E-001    -9.64    9.346E-002   145.32    2.647E-001    31.15 
     -0.0286    -1.7143     5.0000     3.120E-001     0.02    8.660E-002   144.42    2.837E-001    31.41 
     -0.0000    -1.7143     5.0000     2.934E-001    11.77    7.627E-002   142.43    2.909E-001    31.49 
      0.0286    -1.7143     5.0000     3.529E-001    24.51    6.020E-002   132.95    2.867E-001    22.69 
      0.0571    -1.7143     5.0000     2.931E-001    37.70    4.723E-002   131.06    2.696E-001    31.33 
      0.0857    -1.7143     5.0000     3.102E-001    49.02    3.141E-002   113.57    2.425E-001    31.13 
      0.1143    -1.7143     5.0000     3.332E-001    58.17    2.250E-002    70.50    2.062E-001    30.89 
      0.1428    -1.7143     5.0000     3.749E-001    70.46    3.004E-002    35.93    1.620E-001    31.66 
      0.1714    -1.7143     5.0000     3.773E-001    70.52    4.944E-002     5.10    1.137E-001    30.40 
      0.2000    -1.7143     5.0000     3.912E-001    74.45    6.937E-002    -3.70    6.205E-002    30.47 
      0.2286    -1.7143     5.0000     3.967E-001    77.32    8.853E-002    -8.70    9.999E-003    36.67 
      0.2571    -1.7143     5.0000     3.742E-001    76.53    1.051E-001     0.71    2.893E-002   146.96 
      0.2857    -1.7143     5.0000     3.793E-001    80.69    1.201E-001   -14.71    8.661E-002  -153.86 
      0.3143    -1.7143     5.0000     3.564E-001    81.41    1.310E-001   -16.99    1.270E-001  -154.51 
      0.3428    -1.7143     5.0000     3.251E-001    81.56    1.382E-001   -19.14    1.602E-001  -155.48 
      0.3714    -1.7143     5.0000     2.517E-001    81.31    1.443E-001   -16.18    1.931E-001  -157.34 
      0.4000    -1.7143     5.0000     2.426E-001    79.85    1.406E-001   -23.68    2.013E-001  -158.24 
      0.4286    -1.7143     5.0000     1.949E-001    77.55    1.361E-001   -26.34    2.089E-001  -160.12 
      0.4571    -1.7143     5.0000     1.455E-001    73.37    1.282E-001   -29.49    2.083E-001  -162.45 
      0.4857    -1.7143     5.0000     5.897E-002    86.49    1.117E-001   -38.17    1.898E-001  -164.70 
      0.5143    -1.7143     5.0000     5.432E-002    43.52    1.047E-001   -38.26    1.868E-001  -169.07 
      0.5428    -1.7143     5.0000     3.805E-002   -16.33    9.083E-002   -44.74    1.692E-001  -173.83 
      0.5714    -1.7143     5.0000     6.382E-002   -59.96    7.716E-002   -53.51    1.494E-001   180.00 
      0.6000    -1.7143     5.0000     8.370E-002   -25.75    5.846E-002   -45.27    1.156E-001   162.39 
      0.6285    -1.7143     5.0000     1.317E-001   -82.59    5.651E-002   -81.04    1.122E-001   161.89 
      0.6571    -1.7143     5.0000     1.608E-001   -87.66    5.249E-002   -98.91    9.872E-002   149.88 
      0.6857    -1.7143     5.0000     1.857E-001   -91.72    5.293E-002  -115.88    8.980E-002   137.01 
      0.7143    -1.7143     5.0000     1.754E-001   -99.83    7.964E-002  -129.45    8.074E-002   135.10 
      0.7428    -1.7143     5.0000     2.243E-001   -98.60    5.971E-002  -139.15    8.112E-002   115.14 
      0.7714    -1.7143     5.0000     2.392E-001  -101.67    6.238E-002  -145.77    7.722E-002   108.10 
      0.8000    -1.7143     5.0000     2.520E-001  -104.48    6.314E-002  -150.04    7.138E-002   103.93 
      0.8285    -1.7143     5.0000     2.023E-001  -118.07    6.053E-002  -159.77    8.006E-002   103.53 
      0.8571    -1.7143     5.0000     2.737E-001  -108.99    5.759E-002  -153.23    5.196E-002   105.24 
      0.8857    -1.7143     5.0000     2.833E-001  -110.53    5.145E-002  -152.26    3.957E-002   113.68 
      0.9143    -1.7143     5.0000     2.924E-001  -111.48    4.360E-002  -149.05    2.848E-002   134.02 
      0.9428    -1.7143     5.0000     3.751E-001  -113.16    4.339E-002  -122.36    3.928E-002   172.81 
      0.9714    -1.7143     5.0000     3.092E-001  -111.54    2.625E-002  -129.23    3.184E-002  -155.63 
      1.0000    -1.7143     5.0000     2.611E-001  -111.90    9.440E-003    21.20    1.187E-002  -129.84 
     -1.0000    -1.6571     5.0000     1.012E-001   -42.12    1.184E-002  -175.51    8.633E-003    87.78 
     -0.9714    -1.6571     5.0000     2.920E-001   -53.53    2.098E-002  -139.06    1.839E-002    18.94 
     -0.9429    -1.6571     5.0000     2.794E-001   -54.07    3.496E-002  -153.29    6.082E-002    33.94 
     -0.9143    -1.6571     5.0000     2.580E-001   -54.56    4.875E-002  -158.91    1.010E-001    36.48 
     -0.8857    -1.6571     5.0000     2.287E-001   -54.99    6.114E-002  -161.77    1.359E-001    37.43 
     -0.8571    -1.6571     5.0000     1.930E-001   -55.33    7.149E-002  -163.48    1.635E-001    37.83 
     -0.8286    -1.6571     5.0000     1.528E-001   -55.49    7.937E-002  -164.65    1.819E-001    37.93 
     -0.8000    -1.6571     5.0000     1.102E-001   -55.22    8.454E-002  -165.60    1.900E-001    37.80 
     -0.7714    -1.6571     5.0000     6.748E-002   -53.66    8.694E-002  -166.54    1.872E-001    37.45 
     -0.7429    -1.6571     5.0000     2.744E-002   -45.00    8.666E-002  -167.64    1.735E-001    36.80 
     -0.7143    -1.6571     5.0000     1.272E-002    79.30    8.394E-002  -169.09    1.495E-001    35.68 
     -0.6857    -1.6571     5.0000     4.089E-002   104.18    7.921E-002  -171.13    1.164E-001    33.61 
     -0.6571    -1.6571     5.0000     6.285E-002   105.54    7.305E-002  -174.07    7.632E-002    28.92 
     -0.6286    -1.6571     5.0000     7.612E-002   103.26    6.619E-002  -178.29    3.314E-002    10.55 
     -0.6000    -1.6571     5.0000     8.035E-002    98.29    5.951E-002   175.78    2.665E-002   -98.40 
     -0.5714    -1.6571     5.0000     7.654E-002    89.40    5.403E-002   167.88    7.128E-002  -124.72 
     -0.5429    -1.6571     5.0000     6.815E-002    73.48    5.072E-002   158.35    1.165E-001  -130.37 
     -0.5143    -1.6571     5.0000     6.372E-002    46.97    5.017E-002   148.48    1.569E-001  -132.76 
     -0.4857    -1.6571     5.0000     7.530E-002    16.49    5.232E-002   139.99    1.897E-001  -134.06 
     -0.4572    -1.6571     5.0000     1.048E-001    -4.81    5.658E-002   134.03    2.128E-001  -134.86 
     -0.4286    -1.6571     5.0000     1.450E-001   -16.88    6.219E-002   130.78    2.247E-001  -135.36 
     -0.4000    -1.6571     5.0000     1.899E-001   -23.75    6.857E-002   129.83    2.244E-001  -135.64 
     -0.3714    -1.6571     5.0000     2.354E-001   -27.81    7.531E-002   130.61    2.118E-001  -135.71 
     -0.3429    -1.6571     5.0000     2.780E-001   -30.19    8.215E-002   132.59    1.871E-001  -135.49 
     -0.3143    -1.6571     5.0000     3.152E-001   -31.44    8.888E-002   135.32    1.514E-001  -134.80 
     -0.2857    -1.6571     5.0000     3.447E-001   -31.83    9.526E-002   138.46    1.064E-001  -132.93 
     -0.2572    -1.6571     5.0000     3.648E-001   -31.45    1.010E-001   141.74    5.464E-002  -126.35 
     -0.2286    -1.6571     5.0000     3.743E-001   -30.30    1.056E-001   144.98    1.388E-002   -32.58 
     -0.2000    -1.6571     5.0000     3.730E-001   -28.27    1.088E-001   148.06    6.497E-002    27.39 
     -0.1714    -1.6571     5.0000     3.612E-001   -25.16    1.101E-001   150.92    1.228E-001    32.65 
     -0.1429    -1.6571     5.0000     3.407E-001   -20.60    1.090E-001   153.50    1.772E-001    34.25 
     -0.1143    -1.6571     5.0000     3.142E-001   -14.09    1.053E-001   155.81    2.254E-001    34.84 
     -0.0857    -1.6571     5.0000     2.863E-001    -4.94    9.871E-002   157.81    2.649E-001    35.01 
     -0.0572    -1.6571     5.0000     2.636E-001     7.36    8.907E-002   159.51    2.938E-001    34.93 
     -0.0286    -1.6571     5.0000     2.536E-001    22.44    7.643E-002   160.88    3.107E-001    34.68 
     -0.0000    -1.6571     5.0000     2.617E-001    38.28    6.097E-002   161.84    3.148E-001    34.29 
      0.0286    -1.6571     5.0000     2.872E-001    52.27    4.300E-002   162.11    3.061E-001    33.76 
      0.0571    -1.6571     5.0000     3.246E-001    63.13    2.300E-002   160.34    2.851E-001    33.07 
      0.0857    -1.6571     5.0000     3.669E-001    71.00    2.735E-003   105.82    2.528E-001    32.14 
      0.1143    -1.6571     5.0000     4.084E-001    76.53    2.123E-002    -5.64    2.110E-001    30.85 
      0.1428    -1.6571     5.0000     4.445E-001    80.35    4.370E-002    -8.47    1.617E-001    28.85 
      0.1714    -1.6571     5.0000     4.725E-001    82.91    6.562E-002    -9.17    1.074E-001    25.12 
      0.2000    -1.6571     5.0000     4.901E-001    84.50    8.620E-002    -9.47    5.168E-002    14.15 
      0.2286    -1.6571     5.0000     4.964E-001    85.31    1.048E-001    -9.73    1.939E-002   -83.68 
      0.2571    -1.6571     5.0000     4.910E-001    85.42    1.207E-001   -10.06    6.596E-002  -132.59 
      0.2857    -1.6571     5.0000     4.742E-001    84.87    1.335E-001   -10.52    1.151E-001  -140.11 
      0.3143    -1.6571     5.0000     4.470E-001    83.63    1.427E-001   -11.15    1.583E-001  -143.56 
      0.3428    -1.6571     5.0000     4.108E-001    81.58    1.482E-001   -11.99    1.934E-001  -145.96 
      0.3714    -1.6571     5.0000     3.677E-001    78.53    1.498E-001   -13.10    2.193E-001  -148.05 
      0.4000    -1.6571     5.0000     3.201E-001    74.11    1.477E-001   -14.53    2.356E-001  -150.13 
      0.4286    -1.6571     5.0000     2.709E-001    67.75    1.420E-001   -16.39    2.422E-001  -152.39 
      0.4571    -1.6571     5.0000     2.240E-001    58.50    1.333E-001   -18.78    2.397E-001  -154.99 
      0.4857    -1.6571     5.0000     1.842E-001    45.09    1.220E-001   -21.91    2.294E-001  -158.12 
      0.5143    -1.6571     5.0000     1.576E-001    26.71    1.088E-001   -26.04    2.126E-001  -162.01 
      0.5428    -1.6571     5.0000     1.492E-001     5.25    9.459E-002   -31.59    1.914E-001  -166.97 
      0.5714    -1.6571     5.0000     1.580E-001   -14.61    8.046E-002   -39.19    1.681E-001  -173.43 
      0.6000    -1.6571     5.0000     1.773E-001   -30.04    6.762E-002   -49.64    1.452E-001   178.15 
      0.6285    -1.6571     5.0000     2.002E-001   -41.39    5.755E-002   -63.60    1.253E-001   167.39 
      0.6571    -1.6571     5.0000     2.227E-001   -49.97    5.156E-002   -80.63    1.105E-001   154.50 
      0.6857    -1.6571     5.0000     2.428E-001   -56.80    4.999E-002   -98.27    1.016E-001   140.75 
      0.7143    -1.6571     5.0000     2.599E-001   -62.54    5.168E-002  -113.55    9.749E-002   128.07 
      0.7428    -1.6571     5.0000     2.741E-001   -67.58    5.465E-002  -125.29    9.550E-002   117.93 
      0.7714    -1.6571     5.0000     2.861E-001   -72.11    5.722E-002  -133.92    9.296E-002   110.78 
      0.8000    -1.6571     5.0000     2.964E-001   -76.19    5.833E-002  -140.25    8.798E-002   106.51 
      0.8285    -1.6571     5.0000     3.059E-001   -79.82    5.741E-002  -144.98    7.971E-002   105.01 
      0.8571    -1.6571     5.0000     3.152E-001   -82.96    5.425E-002  -148.61    6.817E-002   106.62 
      0.8857    -1.6571     5.0000     3.246E-001   -85.53    4.890E-002  -151.47    5.431E-002   112.69 
      0.9143    -1.6571     5.0000     3.345E-001   -87.46    4.158E-002  -153.85    4.030E-002   126.89 
      0.9428    -1.6571     5.0000     3.448E-001   -88.73    3.267E-002  -156.00    3.105E-002   155.78 
      0.9714    -1.6571     5.0000     3.555E-001   -89.31    2.263E-002  -158.43    3.317E-002  -167.31 
      1.0000    -1.6571     5.0000     3.255E-001   -84.35    2.531E-002    59.32    1.355E-002   -98.27 
     -1.0000    -1.6000     5.0000     4.754E-002   -41.33    2.122E-002   -47.17    2.763E-002   133.78 
     -0.9714    -1.6000     5.0000     4.841E-001   -35.64    1.882E-002  -119.69    1.834E-002    35.39 
     -0.9429    -1.6000     5.0000     4.722E-001   -35.91    3.009E-002  -131.40    6.461E-002    41.37 
     -0.9143    -1.6000     5.0000     4.511E-001   -35.91    4.099E-002  -136.12    1.078E-001    42.31 
     -0.8857    -1.6000     5.0000     4.216E-001   -35.59    5.064E-002  -138.53    1.453E-001    42.63 
     -0.8571    -1.6000     5.0000     3.854E-001   -34.90    5.852E-002  -140.03    1.749E-001    42.73 
     -0.8286    -1.6000     5.0000     3.443E-001   -33.74    6.430E-002  -141.21    1.950E-001    42.69 
     -0.8000    -1.6000     5.0000     3.005E-001   -31.96    6.777E-002  -142.41    2.043E-001    42.54 
     -0.7714    -1.6000     5.0000     2.565E-001   -29.37    6.888E-002  -143.93    2.023E-001    42.29 
     -0.7429    -1.6000     5.0000     2.149E-001   -25.70    6.775E-002  -146.06    1.889E-001    41.88 
     -0.7143    -1.6000     5.0000     1.780E-001   -20.70    6.467E-002  -149.21    1.649E-001    41.24 
     -0.6857    -1.6000     5.0000     1.482E-001   -14.35    6.018E-002  -153.89    1.315E-001    40.17 
     -0.6571    -1.6000     5.0000     1.268E-001    -7.20    5.511E-002  -160.79    9.067E-002    38.01 
     -0.6286    -1.6000     5.0000     1.139E-001    -0.77    5.064E-002  -170.55    4.499E-002    31.33 
     -0.6000    -1.6000     5.0000     1.083E-001     3.02    4.826E-002   176.91    1.115E-002   -72.83 
     -0.5714    -1.6000     5.0000     1.090E-001     2.91    4.920E-002   163.21    5.468E-002  -125.83 
     -0.5429    -1.6000     5.0000     1.156E-001    -0.93    5.375E-002   151.01    1.000E-001  -130.86 
     -0.5143    -1.6000     5.0000     1.287E-001    -7.07    6.111E-002   142.01    1.400E-001  -132.77 
     -0.4857    -1.6000     5.0000     1.486E-001   -13.75    7.009E-002   136.31    1.720E-001  -133.83 
     -0.4572    -1.6000     5.0000     1.745E-001   -19.72    7.967E-002   133.28    1.940E-001  -134.55 
     -0.4286    -1.6000     5.0000     2.046E-001   -24.49    8.908E-002   132.23    2.044E-001  -135.10 
     -0.4000    -1.6000     5.0000     2.364E-001   -28.05    9.783E-002   132.66    2.025E-001  -135.55 
     -0.3714    -1.6000     5.0000     2.672E-001   -30.56    1.056E-001   134.17    1.880E-001  -135.96 
     -0.3429    -1.6000     5.0000     2.945E-001   -32.19    1.121E-001   136.49    1.614E-001  -136.32 
     -0.3143    -1.6000     5.0000     3.158E-001   -33.07    1.172E-001   139.43    1.238E-001  -136.64 
     -0.2857    -1.6000     5.0000     3.290E-001   -33.25    1.208E-001   142.85    7.703E-002  -136.88 
     -0.2572    -1.6000     5.0000     3.327E-001   -32.69    1.229E-001   146.61    2.328E-002  -136.48 
     -0.2286    -1.6000     5.0000     3.260E-001   -31.28    1.233E-001   150.63    3.482E-002    41.28 
     -0.2000    -1.6000     5.0000     3.088E-001   -28.75    1.219E-001   154.83    9.436E-002    41.35 
     -0.1714    -1.6000     5.0000     2.821E-001   -24.60    1.186E-001   159.17    1.524E-001    41.03 
     -0.1429    -1.6000     5.0000     2.483E-001   -17.93    1.133E-001   163.64    2.060E-001    40.63 
     -0.1143    -1.6000     5.0000     2.124E-001    -7.15    1.059E-001   168.27    2.525E-001    40.16 
     -0.0857    -1.6000     5.0000     1.836E-001     9.75    9.646E-002   173.18    2.896E-001    39.63 
     -0.0572    -1.6000     5.0000     1.758E-001    32.47    8.492E-002   178.58    3.154E-001    39.03 
     -0.0286    -1.6000     5.0000     1.975E-001    54.74    7.152E-002  -175.03    3.285E-001    38.34 
     -0.0000    -1.6000     5.0000     2.429E-001    70.86    5.669E-002  -166.58    3.284E-001    37.52 
      0.0286    -1.6000     5.0000     3.001E-001    81.06    4.139E-002  -153.26    3.151E-001    36.53 
      0.0571    -1.6000     5.0000     3.602E-001    87.38    2.833E-002  -127.39    2.892E-001    35.29 
      0.0857    -1.6000     5.0000     4.173E-001    91.31    2.508E-002   -81.80    2.520E-001    33.61 
      0.1143    -1.6000     5.0000     4.675E-001    93.72    3.565E-002   -46.05    2.054E-001    31.17 
      0.1428    -1.6000     5.0000     5.081E-001    95.08    5.216E-002   -28.93    1.519E-001    27.09 
      0.1714    -1.6000     5.0000     5.369E-001    95.65    6.984E-002   -19.90    9.490E-002    18.34 
      0.2000    -1.6000     5.0000     5.530E-001    95.57    8.690E-002   -14.37    4.336E-002   -12.87 
      0.2286    -1.6000     5.0000     5.557E-001    94.90    1.024E-001   -10.66    4.795E-002   -97.42 
      0.2571    -1.6000     5.0000     5.454E-001    93.65    1.156E-001    -8.07    9.787E-002  -123.02 
      0.2857    -1.6000     5.0000     5.228E-001    91.73    1.262E-001    -6.25    1.481E-001  -131.08 
      0.3143    -1.6000     5.0000     4.897E-001    89.04    1.336E-001    -5.04    1.920E-001  -135.31 
      0.3428    -1.6000     5.0000     4.480E-001    85.36    1.377E-001    -4.35    2.273E-001  -138.25 
      0.3714    -1.6000     5.0000     4.007E-001    80.37    1.385E-001    -4.15    2.526E-001  -140.70 
      0.4000    -1.6000     5.0000     3.512E-001    73.58    1.359E-001    -4.45    2.675E-001  -143.03 
      0.4286    -1.6000     5.0000     3.038E-001    64.35    1.303E-001    -5.30    2.721E-001  -145.46 
      0.4571    -1.6000     5.0000     2.640E-001    52.04    1.218E-001    -6.79    2.670E-001  -148.17 
      0.4857    -1.6000     5.0000     2.375E-001    36.57    1.111E-001    -9.08    2.534E-001  -151.39 
      0.5143    -1.6000     5.0000     2.283E-001    19.37    9.870E-002   -12.41    2.330E-001  -155.36 
      0.5428    -1.6000     5.0000     2.358E-001     3.00    8.530E-002   -17.19    2.080E-001  -160.44 
      0.5714    -1.6000     5.0000     2.548E-001   -10.71    7.180E-002   -24.03    1.809E-001  -167.12 
      0.6000    -1.6000     5.0000     2.791E-001   -21.52    5.927E-002   -33.84    1.547E-001  -176.00 
      0.6285    -1.6000     5.0000     3.040E-001   -30.02    4.903E-002   -47.69    1.323E-001   172.42 
      0.6571    -1.6000     5.0000     3.268E-001   -36.90    4.248E-002   -65.72    1.164E-001   158.33 
      0.6857    -1.6000     5.0000     3.460E-001   -42.69    4.030E-002   -85.59    1.082E-001   143.29 
      0.7143    -1.6000     5.0000     3.614E-001   -47.76    4.159E-002  -103.42    1.058E-001   129.68 
      0.7428    -1.6000     5.0000     3.734E-001   -52.34    4.443E-002  -117.37    1.060E-001   119.08 
      0.7714    -1.6000     5.0000     3.826E-001   -56.57    4.707E-002  -127.95    1.054E-001   111.73 
      0.8000    -1.6000     5.0000     3.900E-001   -60.48    4.846E-002  -136.30    1.019E-001   107.27 
      0.8285    -1.6000     5.0000     3.966E-001   -64.08    4.805E-002  -143.43    9.421E-002   105.40 
      0.8571    -1.6000     5.0000     4.031E-001   -67.31    4.571E-002  -150.17    8.246E-002   106.18 
      0.8857    -1.6000     5.0000     4.101E-001   -70.10    4.156E-002  -157.35    6.739E-002   110.44 
      0.9143    -1.6000     5.0000     4.181E-001   -72.37    3.596E-002  -166.03    5.080E-002   120.65 
      0.9428    -1.6000     5.0000     4.270E-001   -74.05    2.963E-002  -177.95    3.654E-002   142.96 
      0.9714    -1.6000     5.0000     4.369E-001   -75.12    2.380E-002   163.93    3.241E-002  -178.79 
      1.0000    -1.6000     5.0000     4.689E-001   -68.89    2.677E-002   114.73    3.180E-002   -62.31 
     -1.0000    -1.5429     5.0000     8.407E-002   -31.89    3.792E-003   -34.00    1.229E-002   146.00 
     -0.9714    -1.5429     5.0000     6.584E-001   -31.61    1.402E-002  -102.96    1.872E-002    48.64 
     -0.9429    -1.5429     5.0000     6.484E-001   -32.00    2.407E-002  -108.86    6.661E-002    47.12 
     -0.9143    -1.5429     5.0000     6.287E-001   -32.21    3.357E-002  -110.32    1.111E-001    46.83 
     -0.8857    -1.5429     5.0000     6.004E-001   -32.25    4.189E-002  -110.52    1.497E-001    46.66 
     -0.8571    -1.5429     5.0000     5.647E-001   -32.09    4.856E-002  -110.29    1.803E-001    46.49 
     -0.8286    -1.5429     5.0000     5.234E-001   -31.72    5.316E-002  -109.97    2.012E-001    46.30 
     -0.8000    -1.5429     5.0000     4.785E-001   -31.13    5.539E-002  -109.79    2.112E-001    46.07 
     -0.7714    -1.5429     5.0000     4.323E-001   -30.31    5.506E-002  -109.97    2.097E-001    45.78 
     -0.7429    -1.5429     5.0000     3.869E-001   -29.25    5.214E-002  -110.83    1.970E-001    45.40 
     -0.7143    -1.5429     5.0000     3.444E-001   -27.99    4.674E-002  -112.92    1.736E-001    44.88 
     -0.6857    -1.5429     5.0000     3.066E-001   -26.62    3.927E-002  -117.41    1.410E-001    44.08 
     -0.6571    -1.5429     5.0000     2.751E-001   -25.31    3.062E-002  -127.04    1.010E-001    42.67 
     -0.6286    -1.5429     5.0000     2.508E-001   -24.30    2.306E-002  -148.03    5.613E-002    39.12 
     -0.6000    -1.5429     5.0000     2.343E-001   -23.87    2.168E-002   176.52    1.090E-002     4.86 
     -0.5714    -1.5429     5.0000     2.256E-001   -24.24    2.929E-002   147.97    3.958E-002  -123.64 
     -0.5429    -1.5429     5.0000     2.245E-001   -25.47    4.175E-002   134.47    8.315E-002  -129.50 
     -0.5143    -1.5429     5.0000     2.302E-001   -27.37    5.570E-002   128.78    1.211E-001  -131.46 
     -0.4857    -1.5429     5.0000     2.419E-001   -29.64    6.962E-002   126.78    1.510E-001  -132.60 
     -0.4572    -1.5429     5.0000     2.578E-001   -31.98    8.265E-002   126.77    1.708E-001  -133.47 
     -0.4286    -1.5429     5.0000     2.762E-001   -34.15    9.424E-002   128.01    1.791E-001  -134.27 
     -0.4000    -1.5429     5.0000     2.949E-001   -36.02    1.040E-001   130.14    1.752E-001  -135.11 
     -0.3714    -1.5429     5.0000     3.113E-001   -37.54    1.116E-001   132.98    1.590E-001  -136.13 
     -0.3429    -1.5429     5.0000     3.233E-001   -38.69    1.171E-001   136.45    1.311E-001  -137.56 
     -0.3143    -1.5429     5.0000     3.287E-001   -39.47    1.203E-001   140.51    9.278E-002  -140.13 
     -0.2857    -1.5429     5.0000     3.256E-001   -39.86    1.215E-001   145.14    4.634E-002  -147.71 
     -0.2572    -1.5429     5.0000     3.127E-001   -39.78    1.207E-001   150.34    1.412E-002    98.57 
     -0.2286    -1.5429     5.0000     2.891E-001   -39.11    1.184E-001   156.10    6.669E-002    55.02 
     -0.2000    -1.5429     5.0000     2.548E-001   -37.51    1.147E-001   162.42    1.242E-001    49.99 
     -0.1714    -1.5429     5.0000     2.104E-001   -34.26    1.099E-001   169.30    1.798E-001    47.83 
     -0.1429    -1.5429     5.0000     1.581E-001   -27.44    1.043E-001   176.73    2.305E-001    46.46 
     -0.1143    -1.5429     5.0000     1.042E-001   -10.71    9.795E-002  -175.28    2.735E-001    45.37 
     -0.0857    -1.5429     5.0000     7.358E-002    33.49    9.108E-002  -166.67    3.065E-001    44.39 
     -0.0572    -1.5429     5.0000     1.069E-001    79.87    8.375E-002  -157.34    3.279E-001    43.43 
     -0.0286    -1.5429     5.0000     1.741E-001    97.83    7.612E-002  -147.04    3.363E-001    42.41 
     -0.0000    -1.5429     5.0000     2.485E-001   105.03    6.846E-002  -135.36    3.314E-001    41.28 
      0.0286    -1.5429     5.0000     3.221E-001   108.41    6.128E-002  -121.72    3.133E-001    39.92 
      0.0571    -1.5429     5.0000     3.906E-001   110.07    5.544E-002  -105.55    2.828E-001    38.21 
      0.0857    -1.5429     5.0000     4.510E-001   110.76    5.214E-002   -86.82    2.414E-001    35.86 
      0.1143    -1.5429     5.0000     5.008E-001   110.84    5.248E-002   -66.97    1.913E-001    32.27 
      0.1428    -1.5429     5.0000     5.381E-001   110.44    5.669E-002   -48.49    1.353E-001    25.79 
      0.1714    -1.5429     5.0000     5.617E-001   109.63    6.396E-002   -33.15    7.894E-002     9.98 
      0.2000    -1.5429     5.0000     5.709E-001   108.42    7.299E-002   -21.21    4.432E-002   -45.05 
      0.2286    -1.5429     5.0000     5.656E-001   106.77    8.252E-002   -12.08    7.583E-002  -101.84 
      0.2571    -1.5429     5.0000     5.466E-001   104.59    9.155E-002    -5.09    1.284E-001  -118.35 
[...]
      0.0000     0.0000     1.4500     1.743E-001     8.47    1.139E-006    48.02    5.147E-002   167.63 
      0.0000     0.0000     1.4750     2.556E-001     3.94    1.138E-006    63.85    4.735E-002   154.50 
      0.0000     0.0000     1.5000     3.339E-001    -1.97    1.074E-006    73.32    4.352E-002   138.69 
      0.0000     0.0000     1.5250     4.081E-001    -8.41    6.805E-007    53.27    4.072E-002   119.77 
      0.0000     0.0000     1.5500     4.771E-001   -15.09    9.582E-007    69.19    3.992E-002    98.07 
      0.0000     0.0000     1.5750     5.401E-001   -21.88    8.712E-007    40.94    4.201E-002    75.25 
      0.0000     0.0000     1.6000     5.962E-001   -28.71    7.420E-007    54.24    4.728E-002    53.65 
      0.0000     0.0000     1.6250     6.450E-001   -35.53    1.211E-006    59.64    5.540E-002    34.65 
      0.0000     0.0000     1.6500     6.858E-001   -42.31    9.832E-007    59.63    6.577E-002    18.30 
      0.0000     0.0000     1.6750     7.183E-001   -49.02    1.115E-006    68.35    7.782E-002     4.09 
      0.0000     0.0000     1.7000     7.438E-001   -55.62    1.237E-006    79.98    9.163E-002    -8.23 
      0.0000     0.0000     1.7250     7.592E-001   -62.10    1.359E-006    65.96    1.058E-001   -19.78 
      0.0000     0.0000     1.7500     7.649E-001   -68.33    1.474E-006    76.64    1.212E-001   -30.52 
      0.0000     0.0000     1.7750     7.632E-001   -74.45    1.401E-006    69.31    1.365E-001   -40.71 
      0.0000     0.0000     1.8000     7.535E-001   -80.33    1.171E-006    74.84    1.521E-001   -50.50 
      0.0000     0.0000     1.8250     7.364E-001   -85.89    1.487E-006    79.42    1.677E-001   -59.99 
      0.0000     0.0000     1.8500     7.125E-001   -91.08    1.878E-006    76.71    1.834E-001   -69.26 
      0.0000     0.0000     1.8750     6.830E-001   -95.80    2.012E-006    79.12    1.989E-001   -78.36 
      0.0000     0.0000     1.9000     6.491E-001   -99.93    1.731E-006    54.86    2.141E-001   -87.33 
      0.0000     0.0000     1.9250     6.123E-001  -103.34    2.013E-006    66.89    2.289E-001   -96.20 
      0.0000     0.0000     1.9500     5.744E-001  -105.86    1.990E-006    59.32    2.432E-001  -104.99 
      0.0000     0.0000     1.9750     5.380E-001  -107.33    1.931E-006    50.71    2.569E-001  -113.71 
      0.0000     0.0000     2.0000     5.058E-001  -107.61    2.388E-006    46.06    2.699E-001  -122.39 
      0.0000     0.0000     2.0250     4.808E-001  -106.70    2.055E-006    41.51    2.821E-001  -131.03 
      0.0000     0.0000     2.0500     4.662E-001  -104.79    2.168E-006    49.14    2.934E-001  -139.64 
      0.0000     0.0000     2.0750     4.642E-001  -102.36    2.492E-006    45.33    3.038E-001  -148.23 
      0.0000     0.0000     2.1000     4.755E-001  -100.03    2.730E-006    34.85    3.132E-001  -156.80 
      0.0000     0.0000     2.1250     4.993E-001   -98.41    2.535E-006    36.65    3.216E-001  -165.35 
      0.0000     0.0000     2.1500     5.334E-001   -97.88    2.684E-006    29.15    3.288E-001  -173.90 
      0.0000     0.0000     2.1750     5.749E-001   -98.55    2.995E-006    25.91    3.349E-001   177.56 
      0.0000     0.0000     2.2000     6.210E-001  -100.36    2.556E-006    25.34    3.399E-001   169.02 
      0.0000     0.0000     2.2250     6.699E-001  -103.27    3.261E-006     9.35    3.451E-001   160.64 
      0.0000     0.0000     2.2500     7.181E-001  -106.88    3.087E-006    -3.97    3.476E-001   152.13 
      0.0000     0.0000     2.2750     7.646E-001  -111.15    2.979E-006     0.30    3.489E-001   143.62 
      0.0000     0.0000     2.3000     8.080E-001  -115.95    3.289E-006   -10.18    3.491E-001   135.09 
      0.0000     0.0000     2.3250     8.472E-001  -121.18    3.606E-006    -4.81    3.480E-001   126.56 
      0.0000     0.0000     2.3500     8.813E-001  -126.73    3.177E-006   -12.96    3.458E-001   118.02 
      0.0000     0.0000     2.3750     9.096E-001  -132.56    3.418E-006   -16.88    3.425E-001   109.47 
      0.0000     0.0000     2.4000     9.315E-001  -138.59    3.577E-006   -18.63    3.382E-001   100.90 
      0.0000     0.0000     2.4250     9.467E-001  -144.78    3.980E-006   -28.42    3.328E-001    92.32 
      0.0000     0.0000     2.4500     9.548E-001  -151.09    3.610E-006   -30.67    3.264E-001    83.73 
      0.0000     0.0000     2.4750     9.559E-001  -157.48    3.871E-006   -36.59    3.191E-001    75.12 
      0.0000     0.0000     2.5000     9.498E-001  -163.93    3.509E-006   -44.09    3.110E-001    66.49 
      0.0000     0.0000     2.5250     9.367E-001  -170.41    4.026E-006   -43.64    3.021E-001    57.84 
      0.0000     0.0000     2.5500     9.167E-001  -176.88    4.243E-006   -49.38    2.924E-001    49.18 
      0.0000     0.0000     2.5750     8.903E-001   176.69    3.912E-006   -52.25    2.821E-001    40.49 
      0.0000     0.0000     2.6000     8.577E-001   170.32    4.051E-006   -63.08    2.712E-001    31.79 
      0.0000     0.0000     2.6250     8.194E-001   164.07    3.880E-006   -64.51    2.598E-001    23.06 
      0.0000     0.0000     2.6500     7.760E-001   157.97    3.893E-006   -72.17    2.479E-001    14.32 
      0.0000     0.0000     2.6750     7.282E-001   152.07    4.373E-006   -73.34    2.357E-001     5.55 
      0.0000     0.0000     2.7000     6.768E-001   146.47    4.424E-006   -82.46    2.232E-001    -3.24 
      0.0000     0.0000     2.7250     6.225E-001   141.24    4.662E-006   -86.58    2.105E-001   -12.05 
      0.0000     0.0000     2.7500     5.664E-001   136.53    4.461E-006   -89.27    1.976E-001   -20.88 
      0.0000     0.0000     2.7750     5.097E-001   132.51    4.672E-006   -99.65    1.846E-001   -29.73 
      0.0000     0.0000     2.8000     4.538E-001   129.42    4.654E-006  -101.56    1.716E-001   -38.59 
      0.0000     0.0000     2.8250     4.003E-001   127.59    4.460E-006  -105.69    1.587E-001   -47.47 
      0.0000     0.0000     2.8500     3.516E-001   127.43    4.659E-006  -110.89    1.459E-001   -56.35 
      0.0000     0.0000     2.8750     3.105E-001   129.33    4.797E-006  -110.87    1.332E-001   -65.23 
      0.0000     0.0000     2.9000     2.803E-001   133.46    4.699E-006  -120.94    1.207E-001   -74.10 
      0.0000     0.0000     2.9250     2.642E-001   139.30    4.608E-006  -127.13    1.085E-001   -82.94 
      0.0000     0.0000     2.9500     2.632E-001   145.52    5.044E-006  -132.02    9.659E-002   -91.73 
      0.0000     0.0000     2.9750     2.759E-001   150.53    4.291E-006  -135.25    8.503E-002  -100.42 
      0.0000     0.0000     3.0000     2.984E-001   153.44    4.826E-006  -143.92    7.385E-002  -108.98 
      0.0000     0.0000     3.0250     3.267E-001   154.14    4.465E-006  -148.71    6.309E-002  -117.30 
      0.0000     0.0000     3.0500     3.572E-001   152.98    5.071E-006  -158.48    5.277E-002  -125.24 
      0.0000     0.0000     3.0750     3.876E-001   150.37    5.100E-006  -160.85    4.296E-002  -132.54 
      0.0000     0.0000     3.1000     4.159E-001   146.68    4.604E-006  -169.17    3.369E-002  -138.69 
      0.0000     0.0000     3.1250     4.412E-001   142.19    4.490E-006  -175.55    2.508E-002  -142.55 
      0.0000     0.0000     3.1500     4.625E-001   137.11    4.645E-006   177.32    1.741E-002  -141.36 
      0.0000     0.0000     3.1750     4.792E-001   131.59    5.091E-006   173.72    1.155E-002  -127.84 
      0.0000     0.0000     3.2000     4.910E-001   125.75    4.922E-006   163.66    9.904E-003   -96.22 
      0.0000     0.0000     3.2250     4.977E-001   119.67    4.911E-006   160.95    1.329E-002   -73.31 
      0.0000     0.0000     3.2500     4.992E-001   113.42    4.736E-006   154.70    1.873E-002   -67.79 
      0.0000     0.0000     3.2750     4.954E-001   107.06    5.016E-006   149.16    2.458E-002   -70.19 
      0.0000     0.0000     3.3000     4.864E-001   100.63    4.931E-006   138.15    3.037E-002   -76.03 
      0.0000     0.0000     3.3250     4.725E-001    94.20    4.702E-006   136.18    3.597E-002   -83.58 
      0.0000     0.0000     3.3500     4.539E-001    87.81    4.947E-006   129.08    4.132E-002   -92.12 
      0.0000     0.0000     3.3750     4.308E-001    81.51    4.602E-006   121.17    4.642E-002  -101.26 
      0.0000     0.0000     3.4000     4.037E-001    75.38    4.702E-006   112.80    5.129E-002  -110.81 
      0.0000     0.0000     3.4250     3.730E-001    69.51    4.494E-006   108.64    5.593E-002  -120.64 
      0.0000     0.0000     3.4500     3.392E-001    64.04    4.432E-006    97.16    6.037E-002  -130.67 
      0.0000     0.0000     3.4750     3.031E-001    59.14    4.792E-006    90.95    6.462E-002  -140.84 
      0.0000     0.0000     3.5000     2.653E-001    55.12    4.162E-006    84.77    6.870E-002  -151.11 
      0.0000     0.0000     3.5250     2.270E-001    52.48    4.464E-006    75.89    7.263E-002  -161.45 
      0.0000     0.0000     3.5500     1.897E-001    52.01    4.396E-006    67.90    7.641E-002  -171.82 
      0.0000     0.0000     3.5750     1.559E-001    55.06    4.081E-006    68.64    8.005E-002   177.80 
      0.0000     0.0000     3.6000     1.299E-001    63.32    3.831E-006    58.77    8.356E-002   167.42 
      0.0000     0.0000     3.6250     1.178E-001    76.97    4.308E-006    47.66    8.692E-002   157.07 
      0.0000     0.0000     3.6500     1.239E-001    91.55    3.906E-006    41.99    9.015E-002   146.75 
      0.0000     0.0000     3.6750     1.451E-001   101.46    4.144E-006    45.39    9.324E-002   136.49 
      0.0000     0.0000     3.7000     1.753E-001   105.78    4.195E-006    26.43    9.616E-002   126.29 
      0.0000     0.0000     3.7250     2.093E-001   106.10    3.703E-006    25.49    9.891E-002   116.16 
      0.0000     0.0000     3.7500     2.443E-001   103.88    3.398E-006    15.62    1.015E-001   106.12 
      0.0000     0.0000     3.7750     2.787E-001   100.09    3.836E-006     0.34    1.038E-001    96.16 
      0.0000     0.0000     3.8000     3.115E-001    95.28    3.707E-006     2.60    1.060E-001    86.29 
      0.0000     0.0000     3.8250     3.418E-001    89.79    3.602E-006    -8.69    1.078E-001    76.53 
      0.0000     0.0000     3.8500     3.693E-001    83.83    3.815E-006   -21.04    1.095E-001    66.87 
      0.0000     0.0000     3.8750     3.936E-001    77.55    3.424E-006   -23.61    1.108E-001    57.32 
      0.0000     0.0000     3.9000     4.144E-001    71.04    3.036E-006   -34.90    1.119E-001    47.88 
      0.0000     0.0000     3.9250     4.314E-001    64.37    3.181E-006   -35.36    1.126E-001    38.57 
      0.0000     0.0000     3.9500     4.446E-001    57.59    2.899E-006   -47.61    1.130E-001    29.39 
      0.0000     0.0000     3.9750     4.538E-001    50.75    3.055E-006   -54.64    1.130E-001    20.34 
      0.0000     0.0000     4.0000     4.590E-001    43.89    2.865E-006   -69.09    1.128E-001    11.44 
      0.0000     0.0000     4.0250     4.603E-001    37.03    2.787E-006   -75.96    1.121E-001     2.70 
      0.0000     0.0000     4.0500     4.578E-001    30.20    2.863E-006   -76.85    1.111E-001    -5.87 
      0.0000     0.0000     4.0750     4.514E-001    23.44    2.333E-006   -88.97    1.098E-001   -14.26 
      0.0000     0.0000     4.1000     4.415E-001    16.79    2.517E-006   -83.22    1.081E-001   -22.45 
      0.0000     0.0000     4.1250     4.282E-001    10.27    2.510E-006  -107.58    1.061E-001   -30.42 
      0.0000     0.0000     4.1500     4.119E-001     3.95    2.361E-006  -114.37    1.039E-001   -38.13 
      0.0000     0.0000     4.1750     3.927E-001    -2.13    2.404E-006  -119.43    1.013E-001   -45.57 
      0.0000     0.0000     4.2000     3.711E-001    -7.88    2.279E-006  -129.42    9.861E-002   -52.70 
      0.0000     0.0000     4.2250     3.476E-001   -13.22    2.072E-006  -135.99    9.572E-002   -59.48 
      0.0000     0.0000     4.2500     3.226E-001   -18.03    1.953E-006  -151.33    9.275E-002   -65.88 
      0.0000     0.0000     4.2750     2.968E-001   -22.13    2.064E-006  -155.31    8.978E-002   -71.84 
      0.0000     0.0000     4.3000     2.711E-001   -25.33    2.280E-006  -168.88    8.692E-002   -77.34 
      0.0000     0.0000     4.3250     2.464E-001   -27.37    1.660E-006  -175.26    8.428E-002   -82.33 
      0.0000     0.0000     4.3500     2.239E-001   -27.99    1.805E-006   178.81    8.200E-002   -86.82 
      0.0000     0.0000     4.3750     2.053E-001   -26.96    2.130E-006   173.63    8.021E-002   -90.81 
      0.0000     0.0000     4.4000     1.923E-001   -24.33    1.836E-006   164.65    7.907E-002   -94.35 
      0.0000     0.0000     4.4250     1.864E-001   -20.57    1.909E-006   154.59    7.870E-002   -97.56 
      0.0000     0.0000     4.4500     1.884E-001   -16.58    1.515E-006   138.64    7.921E-002  -100.56 
      0.0000     0.0000     4.4750     1.979E-001   -13.40    1.732E-006   137.21    8.068E-002  -103.54 
      0.0000     0.0000     4.5000     2.136E-001   -11.69    1.336E-006   127.82    8.311E-002  -106.65 
      0.0000     0.0000     4.5250     2.337E-001   -11.65    1.689E-006   117.57    8.649E-002  -110.05 
      0.0000     0.0000     4.5500     2.566E-001   -13.12    1.489E-006    97.80    9.074E-002  -113.85 
      0.0000     0.0000     4.5750     2.810E-001   -15.86    1.524E-006    98.17    9.577E-002  -118.11 
      0.0000     0.0000     4.6000     3.059E-001   -19.59    1.579E-006    85.95    1.015E-001  -122.85 
      0.0000     0.0000     4.6250     3.306E-001   -24.10    1.335E-006    70.57    1.077E-001  -128.06 
      0.0000     0.0000     4.6500     3.545E-001   -29.21    1.575E-006    81.05    1.144E-001  -133.72 
      0.0000     0.0000     4.6750     3.771E-001   -34.77    1.084E-006    41.43    1.215E-001  -139.78 
      0.0000     0.0000     4.7000     3.983E-001   -40.69    1.057E-006    49.95    1.288E-001  -146.21 
      0.0000     0.0000     4.7250     4.176E-001   -46.89    1.418E-006    45.05    1.362E-001  -152.95 
      0.0000     0.0000     4.7500     4.350E-001   -53.31    1.049E-006    27.59    1.437E-001  -159.98 
      0.0000     0.0000     4.7750     4.504E-001   -59.90    9.448E-007     6.59    1.513E-001  -167.25 
      0.0000     0.0000     4.8000     4.636E-001   -66.62    1.041E-006    21.15    1.587E-001  -174.72 
      0.0000     0.0000     4.8250     4.746E-001   -73.44    9.092E-007    14.28    1.661E-001   177.62 
      0.0000     0.0000     4.8500     4.835E-001   -80.33    9.759E-007    -4.69    1.732E-001   169.80 
      0.0000     0.0000     4.8750     4.903E-001   -87.29    8.475E-007   -21.08    1.802E-001   161.84 
      0.0000     0.0000     4.9000     4.950E-001   -94.28    9.444E-007    19.40    1.869E-001   153.77 
      0.0000     0.0000     4.9250     4.977E-001  -101.30    9.536E-007   -26.26    1.932E-001   145.59 
      0.0000     0.0000     4.9500     4.986E-001  -108.34    9.780E-007   -17.57    1.992E-001   137.32 
      0.0000     0.0000     4.9750     4.977E-001  -115.37    1.183E-006    -5.93    2.049E-001   128.98 
      0.0000     0.0000     5.0000     4.951E-001  -122.41    1.200E-006   -52.65    2.101E-001   120.57 
      0.0000     0.0000     5.0250     4.911E-001  -129.43    9.579E-007   -27.13    2.149E-001   112.10 
      0.0000     0.0000     5.0500     4.857E-001  -136.43    6.574E-007   -63.34    2.193E-001   103.59 
      0.0000     0.0000     5.0750     4.792E-001  -143.42    6.626E-007   -49.22    2.232E-001    95.04 
      0.0000     0.0000     5.1000     4.717E-001  -150.38    8.034E-007   -64.31    2.266E-001    86.45 
      0.0000     0.0000     5.1250     4.633E-001  -157.31    7.379E-007   -33.46    2.295E-001    77.84 
      0.0000     0.0000     5.1500     4.543E-001  -164.22    6.556E-007   -64.37    2.319E-001    69.21 
      0.0000     0.0000     5.1750     4.448E-001  -171.11    5.938E-007   -83.56    2.338E-001    60.57 
      0.0000     0.0000     5.2000     4.350E-001  -177.98    8.894E-007   -90.95    2.351E-001    51.91 
      0.0000     0.0000     5.2250     4.249E-001   175.16    7.296E-007  -102.39    2.360E-001    43.26 
      0.0000     0.0000     5.2500     4.147E-001   168.30    8.036E-007   -88.72    2.364E-001    34.60 
      0.0000     0.0000     5.2750     4.046E-001   161.43    7.247E-007  -108.41    2.362E-001    25.96 
      0.0000     0.0000     5.3000     3.946E-001   154.54    9.491E-007   -85.42    2.356E-001    17.33 
      0.0000     0.0000     5.3250     3.849E-001   147.61    1.024E-006   -75.17    2.346E-001     8.72 
      0.0000     0.0000     5.3500     3.754E-001   140.62    8.766E-007   -83.42    2.330E-001     0.13 
      0.0000     0.0000     5.3750     3.663E-001   133.55    1.019E-006  -119.50    2.311E-001    -8.43 
      0.0000     0.0000     5.4000     3.576E-001   126.39    9.083E-007  -102.84    2.287E-001   -16.95 
      0.0000     0.0000     5.4250     3.493E-001   119.12    8.722E-007  -131.04    2.260E-001   -25.43 
      0.0000     0.0000     5.4500     3.414E-001   111.70    8.358E-007  -115.37    2.229E-001   -33.86 
      0.0000     0.0000     5.4750     3.340E-001   104.12    1.130E-006  -112.39    2.195E-001   -42.23 
      0.0000     0.0000     5.5000     3.270E-001    96.36    1.154E-006  -134.28    2.158E-001   -50.54 
      0.0000     0.0000     5.5250     3.204E-001    88.41    1.265E-006  -138.14    2.119E-001   -58.78 
      0.0000     0.0000     5.5500     3.144E-001    80.24    1.475E-006  -144.56    2.077E-001   -66.95 
      0.0000     0.0000     5.5750     3.087E-001    71.83    1.676E-006  -157.84    2.035E-001   -75.03 
      0.0000     0.0000     5.6000     3.036E-001    63.19    1.190E-006  -154.14    1.991E-001   -83.03 
      0.0000     0.0000     5.6250     2.991E-001    54.30    1.850E-006  -174.13    1.946E-001   -90.92 
      0.0000     0.0000     5.6500     2.951E-001    45.15    1.412E-006  -175.57    1.901E-001   -98.72 
      0.0000     0.0000     5.6750     2.917E-001    35.76    1.648E-006   178.06    1.856E-001  -106.40 
      0.0000     0.0000     5.7000     2.890E-001    26.12    1.512E-006  -179.74    1.813E-001  -113.98 
      0.0000     0.0000     5.7250     2.870E-001    16.25    2.147E-006   164.24    1.770E-001  -121.44 
      0.0000     0.0000     5.7500     2.858E-001     6.18    1.855E-006   156.00    1.730E-001  -128.79 
      0.0000     0.0000     5.7750     2.856E-001    -4.09    1.717E-006   150.26    1.692E-001  -136.03 
      0.0000     0.0000     5.8000     2.862E-001   -14.51    2.040E-006   130.90    1.656E-001  -143.17 
      0.0000     0.0000     5.8250     2.877E-001   -25.05    2.097E-006   128.38    1.624E-001  -150.21 
      0.0000     0.0000     5.8500     2.903E-001   -35.68    2.008E-006   123.44    1.595E-001  -157.18 
      0.0000     0.0000     5.8750     2.938E-001   -46.35    2.182E-006   107.61    1.571E-001  -164.08 
      0.0000     0.0000     5.9000     2.983E-001   -57.04    2.329E-006   109.60    1.550E-001  -170.94 
      0.0000     0.0000     5.9250     3.036E-001   -67.70    2.547E-006   100.28    1.534E-001  -177.79 
      0.0000     0.0000     5.9500     3.098E-001   -78.32    2.374E-006    88.09    1.522E-001   175.36 
      0.0000     0.0000     5.9750     3.168E-001   -88.86    2.391E-006    81.46    1.514E-001   168.47 
      0.0000     0.0000     6.0000     3.244E-001   -99.30    2.537E-006    70.60    1.510E-001   161.52 






***** DATA CARD NO. 22   XQ   0     0     0     0  0.00000E+000 0.00000E+000 0.00000E+000 0.00000E+000 0.00000E+000 0.00000E+000   
***** DATA CARD NO. 23   EN   0     0     0     0  0.00000E+000 0.00000E+000 0.00000E+000 0.00000E+000 0.00000E+000 0.00000E+000   



	******************* Simulation by SuperNec *********************** 

 RUN TIME =     11.337 SEC.
