






                              *****************************************

                                SUPER NUMERICAL ELECTROMAGNETICS CODE  

                              *****************************************




                                    - - - - COMMENTS - - - -


                         Computer generated SuperNEC file
                         The model has : 3 segments
                                         4 plates
                                         0 cylinders
                                         no symmetry
                         




                                - - - STRUCTURE SPECIFICATION - - -

                                    COORDINATES MUST BE INPUT IN
                                    METERS OR BE SCALED TO METERS
                                    BEFORE STRUCTURE INPUT IS ENDED


 WIRE                                                                               NO. OF    FIRST  LAST     TAG
 NO.        X1         Y1         Z1          X2         Y2         Z2      RADIUS   SEG.     SEG.   SEG.     NO.

	 -------------------------- UTD PLATE GEOMETRY -------------------------- 

		Dielectric covered plate 
			Dielectric layer number : 1
			Thickness                      = 1.000000 
			Conductivity                   = 0.010000 
			Relative permittivity          = 10.000000 
			Relative permeability          = 1.000000 

		Plate has 4 edges 
		Coordinates of corner 1 : ( 2.00, 100.00,  0.00) active
		Coordinates of corner 2 : ( 2.00, 100.00,  2.00) active
		Coordinates of corner 3 : ( 2.00, -10.00,  2.00) active
		Coordinates of corner 4 : ( 2.00, -10.00,  0.00) active

	 ------------------------------------------------------------------------ 


	 -------------------------- UTD PLATE GEOMETRY -------------------------- 

		Dielectric covered plate 
			Dielectric layer number : 1
			Thickness                      = 1.000000 
			Conductivity                   = 0.010000 
			Relative permittivity          = 10.000000 
			Relative permeability          = 1.000000 

		Plate has 4 edges 
		Coordinates of corner 1 : (-2.00, 100.00,  0.00) active
		Coordinates of corner 2 : (-2.00, 100.00,  2.00) active
		Coordinates of corner 3 : (-2.00, -10.00,  2.00) active
		Coordinates of corner 4 : (-2.00, -10.00,  0.00) active

	 ------------------------------------------------------------------------ 


	 -------------------------- UTD PLATE GEOMETRY -------------------------- 

		Dielectric covered plate 
			Dielectric layer number : 1
			Thickness                      = 1.000000 
			Conductivity                   = 0.010000 
			Relative permittivity          = 10.000000 
			Relative permeability          = 1.000000 

		Plate has 4 edges 
		Coordinates of corner 1 : ( 2.00, 100.00,  0.00) active
		Coordinates of corner 2 : (-2.00, 100.00,  0.00) active
		Coordinates of corner 3 : (-2.00, -10.00,  0.00) active
		Coordinates of corner 4 : ( 2.00, -10.00,  0.00) active

	 ------------------------------------------------------------------------ 


	 -------------------------- UTD PLATE GEOMETRY -------------------------- 

		Dielectric covered plate 
			Dielectric layer number : 1
			Thickness                      = 1.000000 
			Conductivity                   = 0.010000 
			Relative permittivity          = 10.000000 
			Relative permeability          = 1.000000 

		Plate has 4 edges 
		Coordinates of corner 1 : ( 2.00, 100.00,  2.00) active
		Coordinates of corner 2 : (-2.00, 100.00,  2.00) active
		Coordinates of corner 3 : (-2.00, -10.00,  2.00) active
		Coordinates of corner 4 : ( 2.00, -10.00,  2.00) active

	 ------------------------------------------------------------------------ 

    1    1.89000    0.00000    1.90000     1.89667    0.00000    1.90000    0.00100      1        1     1       0 
    2    1.89667    0.00000    1.90000     1.90333    0.00000    1.90000    0.00100      1        2     2       1 
    3    1.90333    0.00000    1.90000     1.91000    0.00000    1.90000    0.00100      1        3     3       0 


***** DATA CARD NO.  1   EK  -1     0     0     0  0.00000E+000 0.00000E+000 0.00000E+000 0.00000E+000 0.00000E+000 0.00000E+000   
***** DATA CARD NO.  2   KH   0     0     0     0  1.00000E+000 0.00000E+000 0.00000E+000 0.00000E+000 0.00000E+000 0.00000E+000   
***** DATA CARD NO.  3   PT  -2    -1    -1    -1  0.00000E+000 0.00000E+000 0.00000E+000 0.00000E+000 0.00000E+000 0.00000E+000   
***** DATA CARD NO.  4   PQ   0     0     0     0  0.00000E+000 0.00000E+000 0.00000E+000 0.00000E+000 0.00000E+000 0.00000E+000   
***** DATA CARD NO.  5   FC   1     1     0     0  0.00000E+000 0.00000E+000 0.00000E+000 0.00000E+000 0.00000E+000 0.00000E+000   
***** DATA CARD NO.  6   FC   1     1     1     1  0.00000E+000 0.00000E+000 0.00000E+000 0.00000E+000 0.00000E+000 0.00000E+000   
***** DATA CARD NO.  7   FC   3     0     0     0  0.00000E+000 0.00000E+000 0.00000E+000 0.00000E+000 0.00000E+000 0.00000E+000   
***** DATA CARD NO.  8   FC   1     1     0     0  0.00000E+000 0.00000E+000 0.00000E+000 0.00000E+000 0.00000E+000 0.00000E+000   
***** DATA CARD NO.  9   FC   1     1     0     0  0.00000E+000 0.00000E+000 0.00000E+000 0.00000E+000 0.00000E+000 0.00000E+000   
***** DATA CARD NO. 10   FC   1     1     0     0  0.00000E+000 0.00000E+000 0.00000E+000 0.00000E+000 0.00000E+000 0.00000E+000   



	 ----------------------- UTD FIELD COMPONENTS ------------------------ 

		General :
			Direct field
			Ground reflection

		Plate Field Components :
			Slope diffraction
			Corner diffraction
			Single reflection
			Single diffraction
			Double reflection

		Triple Plate Field Components :
			Reflection - reflection - reflection

		Cylinder End Cap Field Components :
			Diffraction
			Reflection

		Cylinder Field Components :
			Single reflection
			Single diffraction

		Cylinder - Plate Field Components :
			Plate reflection - cylinder reflection
			Cylinder reflection - plate reflection

	 ------------------------------------------------------------------------ 

***** DATA CARD NO. 11   FR   0     1     0     0  3.00000E+003 0.00000E+000 0.00000E+000 0.00000E+000 0.00000E+000 0.00000E+000   
***** DATA CARD NO. 12   EX   0     1     1     0  1.00000E+000 0.00000E+000 0.00000E+000 0.00000E+000 0.00000E+000 0.00000E+000   
***** DATA CARD NO. 13   XQ   0     0     0     0  0.00000E+000 0.00000E+000 0.00000E+000 0.00000E+000 0.00000E+000 0.00000E+000   

	 ----------------------------- PLATE CONNECTIONS ------------------------ 

		Plate 1 edge 4 joined to plate 3 edge 4
		Plate 1 edge 2 joined to plate 4 edge 4
		Plate 2 edge 4 joined to plate 3 edge 2
		Plate 2 edge 2 joined to plate 4 edge 2

	 ------------------------------------------------------------------------ 


    TOTAL SEGMENTS USED=    3     NO. SEG. IN A SYMMETRIC CELL=    3     SYMMETRY FLAG=  0


        - MULTIPLE WIRE JUNCTIONS -
JUNCTION    SEGMENTS  (- FOR END 1, + FOR END 2)
 NONE



                                - - - - SEGMENTATION DATA - - - -

                                       COORDINATES IN METERS

                        I+ AND I- INDICATE THE SEGMENTS BEFORE AND AFTER I


 SEG.   COORDINATES OF SEG. CENTER     SEG.     ORIENTATION ANGLES    WIRE    CONNECTION DATA   TAG
 NO.       X         Y         Z       LENGTH     ALPHA     BETA      RADIUS    I-   I    I+    NO.
    1   1.89333   0.00000   1.90000   0.00667    0.00000   0.00000   0.00100     0    1    2      0
    2   1.90000   0.00000   1.90000   0.00667    0.00000   0.00000   0.00100     1    2    3      1
    3   1.90667   0.00000   1.90000   0.00667    0.00000   0.00000   0.00100     2    3    0      0










                                    - - - - PLATE DATA - - - -

                                       COORDINATES IN METERS

		Plate 1 has 4 edges and 1 dielectric layers 
		Plate transparent : FALSE 

			Dielectric layer number : 1
			Thickness                      = 1.000000 
			Conductivity                   = 0.010000 
			Relative permittivity          = 10.000000 
			Relative permeability          = 1.000000 

		Coordinates of corner 1 :   2.00   100.00   0.00  active
		Coordinates of corner 2 :   2.00   100.00   2.00  active
		Coordinates of corner 3 :   2.00  -10.00   2.00  active
		Coordinates of corner 4 :   2.00  -10.00   0.00  active

		Plate 2 has 4 edges and 1 dielectric layers 
		Plate transparent : FALSE 

			Dielectric layer number : 1
			Thickness                      = 1.000000 
			Conductivity                   = 0.010000 
			Relative permittivity          = 10.000000 
			Relative permeability          = 1.000000 

		Coordinates of corner 1 :  -2.00   100.00   0.00  active
		Coordinates of corner 2 :  -2.00   100.00   2.00  active
		Coordinates of corner 3 :  -2.00  -10.00   2.00  active
		Coordinates of corner 4 :  -2.00  -10.00   0.00  active

		Plate 3 has 4 edges and 1 dielectric layers 
		Plate transparent : FALSE 

			Dielectric layer number : 1
			Thickness                      = 1.000000 
			Conductivity                   = 0.010000 
			Relative permittivity          = 10.000000 
			Relative permeability          = 1.000000 

		Coordinates of corner 1 :   2.00   100.00   0.00  active
		Coordinates of corner 2 :  -2.00   100.00   0.00  inactive
		Coordinates of corner 3 :  -2.00  -10.00   0.00  active
		Coordinates of corner 4 :   2.00  -10.00   0.00  inactive

		Plate 4 has 4 edges and 1 dielectric layers 
		Plate transparent : FALSE 

			Dielectric layer number : 1
			Thickness                      = 1.000000 
			Conductivity                   = 0.010000 
			Relative permittivity          = 10.000000 
			Relative permeability          = 1.000000 

		Coordinates of corner 1 :   2.00   100.00   2.00  active
		Coordinates of corner 2 :  -2.00   100.00   2.00  inactive
		Coordinates of corner 3 :  -2.00  -10.00   2.00  active
		Coordinates of corner 4 :   2.00  -10.00   2.00  inactive





                                  - - - - CYLINDER DATA - - - -

                                       COORDINATES IN METERS









                                - - - - - - FREQUENCY - - - - - -

                                   FREQUENCY= 3.0000E+003 MHZ 
                                   WAVELENGTH= 9.9933E-002 METERS 




                   APPROXIMATE INTEGRATION EMPLOYED FOR SEGMENTS MORE THAN    1.000 WAVELENGTHS APART



                              - - - STRUCTURE IMPEDANCE LOADING - - -

                                  THIS STRUCTURE IS NOT LOADED



                                 - - - ANTENNA ENVIRONMENT - - -

                                           FREE SPACE



                               - - - MATRIX TIMING - - -

                       FILL=    0.015 SEC.,  FACTOR=    0.000 SEC.



                                         - - - ANTENNA INPUT PARAMETERS - - -

  TAG   SEG.    VOLTAGE (VOLTS)         CURRENT (AMPS)         IMPEDANCE (OHMS)        ADMITTANCE (MHOS)      POWER
  NO.   NO.    REAL        IMAG.       REAL        IMAG.       REAL        IMAG.       REAL        IMAG.     (WATTS)
    1     2 1.0000E+000 0.0000E+000 1.5531E-004 3.5998E-003 1.1963E+001-2.7728E+002 1.5531E-004 3.5998E-003 7.7654E-005 



                            - - - CURRENTS AND LOCATION - - -

                                DISTANCES IN WAVELENGTHS


 SEG.  TAG    COORD. OF SEG. CENTER     SEG.            - - - CURRENT (AMPS) - - -
 NO.   NO.     X        Y        Z      LENGTH     REAL        IMAG.       MAG.        PHASE
    1    0  18.9460   0.0000  19.0127  0.06671   1.016E-004  1.672E-003  1.675E-003    86.523 
    2    1  19.0127   0.0000  19.0127  0.06670   1.553E-004  3.600E-003  3.603E-003    87.530 
    3    0  19.0794   0.0000  19.0127  0.06671   1.012E-004  1.670E-003  1.673E-003    86.534 



                                 - - - CHARGE DENSITIES - - -

                                   DISTANCES IN WAVELENGTHS


 SEG.  TAG    COORD. OF SEG. CENTER     SEG.          CHARGE DENSITY (COULOMBS/METER)
 NO.   NO.     X        Y        Z      LENGTH     REAL        IMAG.       MAG.        PHASE
    1    0  18.9460   0.0000  19.0127  0.06671  -2.213E-011  1.033E-012  2.215E-011  177.327 
    2    1  19.0127   0.0000  19.0127  0.06670   1.222E-014 -2.611E-015  1.250E-014  -12.060 
    3    0  19.0794   0.0000  19.0127  0.06671   2.212E-011 -1.031E-012  2.215E-011   -2.669 





                                       - - - POWER BUDGET - - -

                                          INPUT POWER   = 7.7654E-005 WATTS 
                                          RADIATED POWER= 7.7654E-005 WATTS 
                                          STRUCTURE LOSS= 0.0000E+000 WATTS 
                                          NETWORK LOSS  = 0.0000E+000 WATTS 
                                          EFFICIENCY    = 100.00 PERCENT






***** DATA CARD NO. 14   FC   1     1     0     0  0.00000E+000 0.00000E+000 0.00000E+000 0.00000E+000 0.00000E+000 0.00000E+000   
***** DATA CARD NO. 15   FC   1     1     1     1  0.00000E+000 0.00000E+000 0.00000E+000 0.00000E+000 0.00000E+000 0.00000E+000   
***** DATA CARD NO. 16   FC   6     0     0     0  0.00000E+000 0.00000E+000 0.00000E+000 0.00000E+000 0.00000E+000 0.00000E+000   
***** DATA CARD NO. 17   FC   1     1     0     0  0.00000E+000 0.00000E+000 0.00000E+000 0.00000E+000 0.00000E+000 0.00000E+000   
***** DATA CARD NO. 18   FC   1     1     0     0  0.00000E+000 0.00000E+000 0.00000E+000 0.00000E+000 0.00000E+000 0.00000E+000   
***** DATA CARD NO. 19   FC   1     1     0     0  0.00000E+000 0.00000E+000 0.00000E+000 0.00000E+000 0.00000E+000 0.00000E+000   



	 ----------------------- UTD FIELD COMPONENTS ------------------------ 

		General :
			Direct field
			Ground reflection

		Plate Field Components :
			Slope diffraction
			Corner diffraction
			Single reflection
			Single diffraction
			Double reflection

		Triple Plate Field Components :
			Reflection - reflection - reflection

		Cylinder End Cap Field Components :
			Diffraction
			Reflection

		Cylinder Field Components :
			Single reflection
			Single diffraction

		Cylinder - Plate Field Components :
			Plate reflection - cylinder reflection
			Cylinder reflection - plate reflection

	 ------------------------------------------------------------------------ 

***** DATA CARD NO. 20   NE   0    51     1    51  -2.00000E+000 5.00000E+001 0.00000E+000 8.00000E-002 0.00000E+000 4.00000E-002   



                                  - - - NEAR ELECTRIC FIELDS - - -

           -  LOCATION  -                     -  EX  -               -  EY  -               -  EZ  -
       X          Y          Z          MAGNITUDE   PHASE      MAGNITUDE   PHASE      MAGNITUDE   PHASE
     METERS     METERS     METERS        VOLTS/M   DEGREES      VOLTS/M   DEGREES      VOLTS/M   DEGREES
     -2.0000    50.0000     0.0000     1.665E-003    93.66    5.395E-005    83.60    6.588E-007    58.05 
     -1.9200    50.0000     0.0000     2.557E-003   108.98    1.964E-004   108.85    2.401E-006   -48.42 
     -1.8400    50.0000     0.0000     1.980E-003   137.89    1.484E-004   137.93    2.881E-006   -25.85 
     -1.7600    50.0000     0.0000     1.633E-003  -177.78    1.204E-004  -176.87    3.961E-006   -32.40 
     -1.6800    50.0000     0.0000     1.625E-003  -174.16    1.165E-004  -174.04    5.474E-006   -36.25 
     -1.6000    50.0000     0.0000     1.620E-003  -136.66    1.139E-004  -135.57    1.129E-005    13.42 
     -1.5200    50.0000     0.0000     1.981E-003  -139.79    1.357E-004  -139.75    2.636E-006    56.38 
     -1.4400    50.0000     0.0000     1.812E-003  -118.99    1.233E-004  -115.47    1.927E-004   -37.82 
     -1.3600    50.0000     0.0000     1.552E-003   -92.49    1.011E-004   -91.23    2.700E-007    27.35 
     -1.2800    50.0000     0.0000     1.625E-003   -77.00    1.034E-004   -76.90    3.131E-006   103.30 
     -1.2000    50.0000     0.0000     2.044E-003   -69.82    1.285E-004   -70.26    4.120E-006   107.72 
     -1.1200    50.0000     0.0000     1.016E-003   -53.39    6.244E-005   -53.75    1.819E-006   122.78 
     -1.0400    50.0000     0.0000     6.484E-004   -57.34    3.732E-005   -51.09    1.048E-004    58.12 
     -0.9600    50.0000     0.0000     1.627E-003    -7.48    9.315E-005    -7.35    2.822E-006   172.78 
     -0.8800    50.0000     0.0000     1.624E-003     8.70    9.048E-005     8.90    2.740E-006  -171.03 
     -0.8000    50.0000     0.0000     1.976E-003     8.18    1.067E-004     8.32    1.295E-006   -30.46 
     -0.7200    50.0000     0.0000     8.087E-004    41.17    4.251E-005    41.60    1.123E-006  -137.85 
     -0.6400    50.0000     0.0000     1.625E-003    54.68    8.270E-005    54.86    2.506E-006  -125.12 
     -0.5600    50.0000     0.0000     3.551E-004    36.33    1.562E-005    52.23    1.090E-004   157.75 
     -0.4800    50.0000     0.0000     2.125E-003    73.77    1.034E-004    73.36    3.341E-006  -108.43 
     -0.4000    50.0000     0.0000     1.871E-003    91.20    8.737E-005    90.98    2.743E-006   -90.28 
     -0.3200    50.0000     0.0000     2.219E-003   106.00    9.833E-005   106.74    1.374E-006   -63.25 
     -0.2400    50.0000     0.0000     2.838E-003   107.93    1.253E-004   107.51    3.070E-006   -69.06 
     -0.1600    50.0000     0.0000     2.189E-003   125.82    9.273E-005   125.36    3.012E-006   -56.26 
     -0.0800    50.0000     0.0000     1.406E-003   167.90    5.594E-005   170.50    2.534E-006   -51.13 
      0.0000    50.0000     0.0000     8.090E-004   156.34    3.118E-005   156.60    5.874E-007   166.68 
      0.0800    50.0000     0.0000     8.081E-004   167.32    2.983E-005   167.50    7.874E-007   -12.82 
      0.1600    50.0000     0.0000     1.650E-003  -170.29    5.702E-005  -168.88    2.484E-005   101.43 
      0.2400    50.0000     0.0000     6.403E-004  -175.18    4.807E-005  -168.06    1.511E-006    12.71 
      0.3200    50.0000     0.0000     2.772E-003  -175.02    8.783E-005  -174.97    7.513E-007    70.31 
      0.4000    50.0000     0.0000     1.669E-003  -142.85    6.225E-005   165.91    1.049E-006   -59.65 
      0.4800    50.0000     0.0000     2.701E-003  -163.91    6.988E-005  -162.88    2.391E-006   119.58 
      0.5600    50.0000     0.0000     1.075E-004  -132.28    2.226E-005    47.78    1.011E-006  -132.99 
      0.6400    50.0000     0.0000     1.762E-003  -128.06    4.341E-005  -128.92    6.720E-006    80.89 
      0.7200    50.0000     0.0000     6.464E-004   -67.74    3.703E-005   -64.56    2.331E-006   110.37 
      0.8000    50.0000     0.0000     1.257E-003   -89.47    2.757E-005  -107.79    6.011E-005   174.62 
      0.8800    50.0000     0.0000     8.376E-004  -120.81    2.818E-005   -52.87    9.758E-007   136.68 
      0.9600    50.0000     0.0000     3.380E-004    25.38    1.525E-005    77.55    2.515E-006  -104.30 
      1.0400    50.0000     0.0000     1.496E-003  -113.94    3.791E-005   -83.39    1.070E-004  -163.59 
      1.1200    50.0000     0.0000     9.944E-004   -86.41    1.585E-005  -106.99    1.420E-004    11.00 
      1.2000    50.0000     0.0000     4.713E-004  -110.58    1.770E-005   116.84    1.038E-006   -83.85 
      1.2800    50.0000     0.0000     1.997E-003   -92.28    2.482E-005   -92.26    4.788E-007   102.46 
      1.3600    50.0000     0.0000     7.706E-004    54.26    1.596E-005    63.21    2.484E-004  -129.41 
      1.4400    50.0000     0.0000     2.158E-003   -89.26    3.204E-005  -100.43    7.868E-007    81.87 
      1.5200    50.0000     0.0000     5.292E-004  -170.04    2.551E-005    60.17    5.375E-006  -101.38 
      1.6000    50.0000     0.0000     1.016E-003   -41.94    2.271E-005   -95.19    1.314E-004  -131.16 
      1.6800    50.0000     0.0000     4.251E-004  -103.57    5.875E-006    79.24    1.016E-005  -164.88 
      1.7600    50.0000     0.0000     1.997E-003   -79.18    5.654E-006   -79.88    1.067E-007   116.36 
      1.8400    50.0000     0.0000     1.992E-003   -76.34    1.266E-005  -153.60    4.322E-006    84.98 
      1.9200    50.0000     0.0000     8.044E-004   -41.40    5.322E-005  -152.80    1.514E-004  -119.71 
      2.0000    50.0000     0.0000     6.306E-004    59.01    2.705E-005  -120.54    6.316E-004  -121.09 
     -2.0000    50.0000     0.0400     6.443E-004   104.70    9.168E-005   -74.24    2.803E-004   148.56 
     -1.9200    50.0000     0.0400     1.515E-003    32.72    7.586E-005   -18.43    6.033E-004  -139.21 
     -1.8400    50.0000     0.0400     1.620E-003    37.40    5.011E-005    12.02    7.572E-004  -148.24 
     -1.7600    50.0000     0.0400     1.564E-003    44.34    3.993E-005    72.90    6.982E-004  -158.35 
     -1.6800    50.0000     0.0400     1.332E-003    53.10    5.852E-005   112.80    4.909E-004  -168.63 
     -1.6000    50.0000     0.0400     9.561E-004    66.12    7.768E-005   126.62    2.358E-004   154.66 
     -1.5200    50.0000     0.0400     5.673E-004    95.94    8.718E-005   130.32    2.743E-004    66.82 
     -1.4400    50.0000     0.0400     5.362E-004   156.61    8.886E-005   130.73    4.807E-004    35.20 
     -1.3600    50.0000     0.0400     8.885E-004  -172.74    8.699E-005   132.17    5.949E-004    22.94 
     -1.2800    50.0000     0.0400     1.251E-003  -162.42    7.355E-005   137.45    6.152E-004    10.53 
     -1.2000    50.0000     0.0400     1.492E-003  -157.37    4.155E-005   149.41    6.069E-004    -4.11 
     -1.1200    50.0000     0.0400     1.547E-003  -153.51    1.592E-005  -122.02    4.884E-004   -19.34 
     -1.0400    50.0000     0.0400     1.388E-003  -149.05    5.013E-005   -70.85    2.757E-004   -46.93 
     -0.9600    50.0000     0.0400     1.043E-003  -141.58    7.887E-005   -75.10    2.317E-004  -124.63 
     -0.8800    50.0000     0.0400     6.293E-004  -121.69    9.124E-005   -82.48    4.126E-004  -166.87 
     -0.8000    50.0000     0.0400     4.864E-004   -66.67    9.328E-005   -90.68    5.409E-004   169.96 
     -0.7200    50.0000     0.0400     8.116E-004   -32.39    8.607E-005   -98.26    5.625E-004   148.75 
     -0.6400    50.0000     0.0400     1.199E-003   -24.60    6.816E-005  -105.31    5.137E-004   128.05 
     -0.5600    50.0000     0.0400     1.474E-003   -23.50    3.258E-005  -116.19    4.635E-004   105.70 
     -0.4800    50.0000     0.0400     1.559E-003   -23.90    1.883E-005    92.62    3.871E-004    78.63 
     -0.4000    50.0000     0.0400     1.410E-003   -24.06    5.966E-005    71.94    2.742E-004    31.33 
     -0.3200    50.0000     0.0400     1.053E-003   -21.96    8.169E-005    58.89    3.216E-004   -29.12 
     -0.2400    50.0000     0.0400     6.004E-004    -9.00    9.162E-005    42.42    4.212E-004   -58.58 
     -0.1600    50.0000     0.0400     3.983E-004    48.68    9.447E-005    25.19    4.368E-004   -83.07 
     -0.0800    50.0000     0.0400     7.433E-004    83.62    9.154E-005    10.76    3.569E-004  -115.88 
      0.0000    50.0000     0.0400     1.150E-003    86.24    7.761E-005    -8.33    3.433E-004  -155.07 
      0.0800    50.0000     0.0400     1.442E-003    82.43    4.696E-005   -36.32    3.247E-004   165.13 
      0.1600    50.0000     0.0400     1.534E-003    77.41    3.636E-005  -129.41    3.592E-004   137.97 
      0.2400    50.0000     0.0400     1.384E-003    72.66    7.733E-005  -173.66    3.543E-004   107.81 
      0.3200    50.0000     0.0400     1.019E-003    69.69    9.929E-005   165.36    3.388E-004    69.74 
      0.4000    50.0000     0.0400     5.484E-004    76.05    1.021E-004   141.12    2.944E-004    38.43 
      0.4800    50.0000     0.0400     3.122E-004   136.74    1.026E-004   113.29    1.696E-004     3.09 
      0.5600    50.0000     0.0400     6.614E-004   169.99    9.903E-005    88.22    1.585E-004   -98.41 
      0.6400    50.0000     0.0400     1.058E-003   166.35    8.429E-005    64.40    3.617E-004  -143.10 
      0.7200    50.0000     0.0400     1.340E-003   157.05    5.467E-005    27.64    5.134E-004  -163.94 
      0.8000    50.0000     0.0400     1.425E-003   146.86    4.932E-005   -53.17    5.440E-004  -178.11 
      0.8800    50.0000     0.0400     1.268E-003   136.36    9.052E-005   -98.79    4.850E-004   170.29 
      0.9600    50.0000     0.0400     9.056E-004   125.40    1.123E-004  -123.68    3.699E-004   155.14 
      1.0400    50.0000     0.0400     4.421E-004   115.74    1.072E-004  -151.73    1.899E-004   149.49 
      1.1200    50.0000     0.0400     8.581E-005  -162.94    1.015E-004   173.34    1.655E-004  -126.96 
      1.2000    50.0000     0.0400     4.521E-004  -124.69    9.997E-005   140.44    4.261E-004  -114.32 
      1.2800    50.0000     0.0400     8.109E-004  -141.10    8.543E-005   109.43    6.506E-004  -120.00 
      1.3600    50.0000     0.0400     1.079E-003  -158.83    5.715E-005    64.51    7.781E-004  -130.07 
      1.4400    50.0000     0.0400     1.174E-003  -176.20    6.030E-005   -13.54    7.486E-004  -140.81 
      1.5200    50.0000     0.0400     1.056E-003   164.86    1.031E-004   -57.40    5.944E-004  -146.44 
      1.6000    50.0000     0.0400     7.849E-004   140.80    1.244E-004   -84.56    4.315E-004  -143.66 
      1.6800    50.0000     0.0400     4.912E-004   106.06    1.122E-004  -115.87    3.331E-004  -125.26 
      1.7600    50.0000     0.0400     2.713E-004    54.84    9.837E-005  -157.90    4.503E-004   -99.45 
      1.8400    50.0000     0.0400     1.656E-004   -43.74    9.700E-005   162.57    6.975E-004   -99.33 
      1.9200    50.0000     0.0400     3.957E-004  -122.10    8.404E-005   126.81    8.648E-004  -107.87 
      2.0000    50.0000     0.0400     6.335E-004    65.21    2.667E-005  -114.34    6.346E-004  -114.88 
     -2.0000    50.0000     0.0800     7.275E-004    41.08    1.017E-004   -38.91    2.472E-004   158.48 
     -1.9200    50.0000     0.0800     1.672E-003    28.85    1.536E-004   -16.87    4.294E-004  -153.19 
     -1.8400    50.0000     0.0800     2.109E-003    41.89    1.220E-004     0.61    6.089E-004  -154.99 
     -1.7600    50.0000     0.0800     2.300E-003    52.11    7.381E-005    30.06    5.821E-004  -158.69 
     -1.6800    50.0000     0.0800     2.229E-003    60.86    5.207E-005    91.36    3.714E-004  -164.95 
     -1.6000    50.0000     0.0800     1.892E-003    68.86    7.638E-005   132.34    1.435E-004   137.71 
     -1.5200    50.0000     0.0800     1.371E-003    79.13    1.016E-004   142.08    3.082E-004    53.71 
     -1.4400    50.0000     0.0800     8.282E-004   102.76    1.220E-004   141.87    5.218E-004    31.76 
     -1.3600    50.0000     0.0800     7.027E-004   160.25    1.409E-004   140.05    6.054E-004    20.28 
     -1.2800    50.0000     0.0800     1.191E-003  -163.74    1.420E-004   142.12    6.001E-004     8.47 
     -1.2000    50.0000     0.0800     1.745E-003  -152.34    1.121E-004   144.75    5.890E-004    -5.70 
     -1.1200    50.0000     0.0800     2.103E-003  -146.61    5.160E-005   151.11    4.530E-004   -18.33 
     -1.0400    50.0000     0.0800     2.142E-003  -143.58    2.617E-005   -57.57    2.444E-004   -50.87 
     -0.9600    50.0000     0.0800     1.855E-003  -142.36    7.304E-005   -47.87    2.337E-004  -134.85 
     -0.8800    50.0000     0.0800     1.339E-003  -141.41    1.000E-004   -56.91    4.345E-004  -167.23 
     -0.8000    50.0000     0.0800     7.352E-004  -132.74    1.164E-004   -71.75    5.490E-004   171.55 
     -0.7200    50.0000     0.0800     4.031E-004   -68.11    1.325E-004   -86.16    5.594E-004   149.72 
     -0.6400    50.0000     0.0800     9.236E-004   -23.35    1.375E-004   -96.23    5.088E-004   128.21 
     -0.5600    50.0000     0.0800     1.544E-003   -17.41    1.082E-004  -104.99    4.593E-004   107.25 
     -0.4800    50.0000     0.0800     1.954E-003   -17.56    4.699E-005  -130.99    3.643E-004    83.37 
     -0.4000    50.0000     0.0800     2.016E-003   -20.18    4.803E-005   123.57    2.303E-004    30.65 
     -0.3200    50.0000     0.0800     1.731E-003   -25.48    9.086E-005    96.47    3.240E-004   -32.90 
     -0.2400    50.0000     0.0800     1.222E-003   -33.92    1.070E-004    76.75    4.331E-004   -56.97 
     -0.1600    50.0000     0.0800     6.317E-004   -43.47    1.148E-004    51.32    3.983E-004   -80.50 
     -0.0800    50.0000     0.0800     2.483E-004   -15.65    1.199E-004    32.12    3.549E-004  -113.89 
      0.0000    50.0000     0.0800     6.981E-004    96.03    1.442E-004     2.28    3.402E-004  -156.39 
      0.0800    50.0000     0.0800     9.527E-004    47.58    1.332E-004   -28.03    3.215E-004   167.98 
      0.1600    50.0000     0.0800     1.773E-003    82.98    6.999E-005   -57.27    3.166E-004   142.30 
      0.2400    50.0000     0.0800     1.838E-003    74.48    8.658E-005  -131.57    2.909E-004   107.13 
      0.3200    50.0000     0.0800     1.555E-003    62.24    1.280E-004  -160.75    3.045E-004    65.18 
      0.4000    50.0000     0.0800     1.095E-003    42.93    1.316E-004   176.11    2.792E-004    37.65 
      0.4800    50.0000     0.0800     6.440E-004    13.92    1.206E-004   141.14    1.415E-004     4.08 
      0.5600    50.0000     0.0800     2.343E-004   -44.02    1.318E-004   102.66    1.714E-004  -107.32 
      0.6400    50.0000     0.0800     4.773E-004  -166.65    1.480E-004    75.98    3.896E-004  -142.25 
      0.7200    50.0000     0.0800     1.073E-003   167.08    1.285E-004    51.64    5.205E-004  -161.36 
      0.8000    50.0000     0.0800     1.498E-003   151.85    8.439E-005     3.93    5.127E-004  -175.21 
      0.8800    50.0000     0.0800     1.570E-003   136.37    1.103E-004   -63.88    4.235E-004   172.51 
      0.9600    50.0000     0.0800     1.334E-003   114.55    1.557E-004   -94.19    3.136E-004   156.41 
      1.0400    50.0000     0.0800     1.054E-003    81.37    1.525E-004  -118.14    1.616E-004   156.58 
      1.1200    50.0000     0.0800     9.019E-004    44.00    1.254E-004  -155.66    1.996E-004  -120.71 
      1.2000    50.0000     0.0800     6.745E-004    10.40    1.309E-004   156.56    4.693E-004  -111.36 
      1.2800    50.0000     0.0800     3.316E-004   -54.59    1.491E-004   122.43    6.833E-004  -116.35 
      1.3600    50.0000     0.0800     6.357E-004  -143.74    1.301E-004    93.00    7.838E-004  -126.00 
      1.4400    50.0000     0.0800     1.076E-003  -173.18    9.004E-005    39.10    7.182E-004  -136.50 
      1.5200    50.0000     0.0800     1.224E-003   161.68    1.272E-004   -28.31    5.361E-004  -141.20 
      1.6000    50.0000     0.0800     1.186E-003   127.76    1.798E-004   -59.63    3.818E-004  -135.19 
      1.6800    50.0000     0.0800     1.266E-003    88.95    1.732E-004   -85.09    3.306E-004  -114.23 
      1.7600    50.0000     0.0800     1.393E-003    60.16    1.320E-004  -124.09    4.921E-004   -95.59 
      1.8400    50.0000     0.0800     1.232E-003    40.83    1.296E-004  -178.14    7.493E-004   -95.66 
      1.9200    50.0000     0.0800     6.881E-004    25.62    1.463E-004   142.40    8.907E-004  -105.05 
      2.0000    50.0000     0.0800     6.364E-004    71.33    2.628E-005  -108.23    6.375E-004  -108.76 
     -2.0000    50.0000     0.1200     3.273E-004   -52.32    1.677E-004   -62.45    2.288E-004   169.07 
     -1.9200    50.0000     0.1200     1.447E-003    29.65    2.123E-004    -6.90    3.420E-004  -164.58 
     -1.8400    50.0000     0.1200     2.143E-003    52.20    1.829E-004     5.15    5.061E-004  -157.77 
     -1.7600    50.0000     0.1200     2.628E-003    65.10    1.156E-004    21.40    4.686E-004  -158.20 
     -1.6800    50.0000     0.1200     2.786E-003    73.49    4.598E-005    63.68    2.759E-004  -159.96 
     -1.6000    50.0000     0.1200     2.570E-003    78.90    5.779E-005   151.51    9.442E-005    97.58 
     -1.5200    50.0000     0.1200     2.048E-003    82.91    1.004E-004   165.19    3.618E-004    44.62 
     -1.4400    50.0000     0.1200     1.346E-003    90.15    1.351E-004   160.49    5.619E-004    29.48 
     -1.3600    50.0000     0.1200     6.632E-004   123.09    1.729E-004   153.52    6.161E-004    18.45 
     -1.2800    50.0000     0.1200     8.753E-004  -160.75    1.971E-004   150.64    5.893E-004     6.41 
     -1.2000    50.0000     0.1200     1.692E-003  -139.67    1.728E-004   150.73    5.691E-004    -6.97 
     -1.1200    50.0000     0.1200     2.349E-003  -133.67    1.022E-004   147.80    4.190E-004   -17.07 
     -1.0400    50.0000     0.1200     2.608E-003  -132.30    2.003E-005    68.19    1.902E-004   -48.20 
     -0.9600    50.0000     0.1200     2.430E-003  -134.45    7.693E-005    -7.84    2.406E-004  -146.76 
     -0.8800    50.0000     0.1200     1.936E-003  -140.01    1.121E-004   -24.32    4.534E-004  -167.99 
     -0.8000    50.0000     0.1200     1.279E-003  -147.11    1.297E-004   -47.32    5.552E-004   172.62 
     -0.7200    50.0000     0.1200     5.088E-004  -145.86    1.602E-004   -70.96    5.546E-004   150.48 
     -0.6400    50.0000     0.1200     4.595E-004   -10.47    1.898E-004   -85.66    4.976E-004   128.43 
     -0.5600    50.0000     0.1200     1.376E-003    -2.62    1.744E-004   -95.85    4.433E-004   108.78 
     -0.4800    50.0000     0.1200     2.084E-003    -4.95    1.068E-004  -115.74    3.334E-004    88.23 
     -0.4000    50.0000     0.1200     2.361E-003   -10.10    7.119E-005   174.28    1.847E-004    27.34 
     -0.3200    50.0000     0.1200     2.188E-003   -19.49    1.189E-004   130.01    3.275E-004   -37.22 
     -0.2400    50.0000     0.1200     1.755E-003   -35.02    1.385E-004   108.36    4.413E-004   -56.40 
     -0.1600    50.0000     0.1200     1.263E-003   -56.04    1.333E-004    78.29    3.956E-004   -79.84 
     -0.0800    50.0000     0.1200     6.932E-004   -81.69    1.546E-004    38.15    3.496E-004  -112.81 
      0.0000    50.0000     0.1200     2.712E-004   162.98    1.954E-004    13.68    3.156E-004  -156.79 
      0.0800    50.0000     0.1200     1.076E-003   108.52    1.913E-004    -4.30    3.161E-004   168.51 
      0.1600    50.0000     0.1200     1.786E-003    95.05    1.284E-004   -33.64    2.782E-004   144.50 
      0.2400    50.0000     0.1200     2.061E-003    82.88    1.150E-004   -98.52    2.294E-004   103.26 
      0.3200    50.0000     0.1200     1.902E-003    65.46    1.682E-004  -135.57    2.755E-004    58.35 
      0.4000    50.0000     0.1200     1.601E-003    38.83    1.771E-004  -157.50    2.625E-004    36.09 
      0.4800    50.0000     0.1200     1.396E-003     8.24    1.446E-004   168.64    1.142E-004     1.59 
      0.5600    50.0000     0.1200     1.087E-003   -18.86    1.511E-004   118.55    1.900E-004  -113.49 
      0.6400    50.0000     0.1200     5.288E-004   -63.07    1.967E-004    86.49    4.142E-004  -140.82 
      0.7200    50.0000     0.1200     7.063E-004  -165.97    1.961E-004    64.43    5.250E-004  -158.57 
      0.8000    50.0000     0.1200     1.375E-003   163.23    1.391E-004    29.05    4.810E-004  -172.57 
      0.8800    50.0000     0.1200     1.665E-003   142.57    1.382E-004   -37.13    3.645E-004   174.43 
      0.9600    50.0000     0.1200     1.601E-003   114.57    2.020E-004   -73.88    2.597E-004   157.31 
      1.0400    50.0000     0.1200     1.608E-003    77.49    2.088E-004   -96.16    1.355E-004   165.41 
      1.1200    50.0000     0.1200     1.781E-003    46.98    1.589E-004  -129.82    2.316E-004  -115.57 
      1.2000    50.0000     0.1200     1.667E-003    26.39    1.505E-004   172.78    5.075E-004  -108.36 
      1.2800    50.0000     0.1200     1.054E-003     6.33    1.986E-004   133.03    7.102E-004  -112.72 
      1.3600    50.0000     0.1200     3.038E-004   -65.75    1.995E-004   106.81    7.853E-004  -121.99 
      1.4400    50.0000     0.1200     8.024E-004  -165.05    1.399E-004    66.54    6.873E-004  -132.18 
      1.5200    50.0000     0.1200     1.218E-003   162.84    1.503E-004    -5.23    4.840E-004  -134.63 
      1.6000    50.0000     0.1200     1.457E-003   124.53    2.297E-004   -43.07    3.353E-004  -125.30 
      1.6800    50.0000     0.1200     1.927E-003    88.12    2.387E-004   -66.57    3.431E-004  -105.49 
      1.7600    50.0000     0.1200     2.404E-003    64.70    1.763E-004  -100.26    5.312E-004   -91.56 
      1.8400    50.0000     0.1200     2.397E-003    49.68    1.542E-004  -160.49    7.734E-004   -91.79 
      1.9200    50.0000     0.1200     1.750E-003    39.12    1.975E-004   154.01    9.051E-004  -100.73 
      2.0000    50.0000     0.1200     6.393E-004    77.32    2.589E-005  -102.24    6.404E-004  -102.76 
     -2.0000    50.0000     0.1600     6.651E-004    69.90    1.207E-004   -40.90    2.256E-004  -173.20 
     -1.9200    50.0000     0.1600     1.020E-003    48.27    2.418E-004     9.42    2.663E-004  -163.00 
     -1.8400    50.0000     0.1600     1.998E-003    76.64    2.233E-004    17.12    4.177E-004  -158.15 
     -1.7600    50.0000     0.1600     2.796E-003    88.07    1.454E-004    25.63    3.891E-004  -153.58 
     -1.6800    50.0000     0.1600     3.168E-003    94.02    3.740E-005    43.01    1.712E-004  -146.10 
     -1.6000    50.0000     0.1600     3.029E-003    96.37    5.970E-005  -158.05    1.111E-004    51.72 
     -1.5200    50.0000     0.1600     2.469E-003    95.71    1.201E-004  -157.96    4.065E-004    39.97 
     -1.4400    50.0000     0.1600     1.654E-003    93.82    1.570E-004  -169.50    5.957E-004    28.56 
     -1.3600    50.0000     0.1600     6.772E-004    99.02    1.964E-004   175.63    6.231E-004    17.71 
     -1.2800    50.0000     0.1600     5.263E-004  -124.37    2.311E-004   166.37    5.783E-004     4.79 
     -1.2000    50.0000     0.1600     1.646E-003  -111.52    2.163E-004   162.17    5.395E-004    -8.04 
     -1.1200    50.0000     0.1600     2.541E-003  -110.87    1.387E-004   153.76    3.894E-004   -16.24 
     -1.0400    50.0000     0.1600     2.946E-003  -112.84    5.959E-005    89.84    1.227E-004   -38.74 
     -0.9600    50.0000     0.1600     2.796E-003  -118.23    1.126E-004    24.99    2.527E-004  -156.40 
     -0.8800    50.0000     0.1600     2.260E-003  -128.64    1.561E-004     6.36    4.665E-004  -169.35 
     -0.8000    50.0000     0.1600     1.582E-003  -144.71    1.613E-004   -16.99    5.558E-004   173.10 
     -0.7200    50.0000     0.1600     8.223E-004  -168.63    1.817E-004   -48.41    5.454E-004   151.08 
     -0.6400    50.0000     0.1600     3.798E-004    78.57    2.237E-004   -70.45    4.797E-004   128.71 
     -0.5600    50.0000     0.1600     1.339E-003    29.69    2.226E-004   -84.11    4.175E-004   109.96 
     -0.4800    50.0000     0.1600     2.213E-003    18.09    1.552E-004  -104.53    2.943E-004    92.19 
     -0.4000    50.0000     0.1600     2.599E-003     8.86    1.097E-004  -162.57    1.418E-004    18.57 
     -0.3200    50.0000     0.1600     2.435E-003    -4.10    1.654E-004   152.45    3.321E-004   -42.26 
     -0.2400    50.0000     0.1600     1.994E-003   -25.24    1.972E-004   132.68    4.208E-004   -59.88 
     -0.1600    50.0000     0.1600     1.641E-003   -46.75    1.682E-004   112.55    3.883E-004   -78.16 
     -0.0800    50.0000     0.1600     1.218E-003   -84.42    1.727E-004    59.81    3.414E-004  -114.33 
      0.0000    50.0000     0.1600     7.322E-004  -136.56    2.286E-004    27.65    3.160E-004  -158.66 
      0.0800    50.0000     0.1600     1.070E-003   146.57    2.428E-004     7.89    3.019E-004   166.54 
      0.1600    50.0000     0.1600     1.003E-003    94.71    1.917E-004   -18.05    2.372E-004   143.56 
      0.2400    50.0000     0.1600     2.197E-003   101.11    1.500E-004   -75.73    1.766E-004    97.70 
      0.3200    50.0000     0.1600     2.043E-003    79.46    2.131E-004  -116.73    2.563E-004    49.81 
      0.4000    50.0000     0.1600     1.798E-003    46.23    2.344E-004  -137.96    2.467E-004    33.22 
      0.4800    50.0000     0.1600     1.822E-003    11.50    1.851E-004  -166.39    9.641E-005    -7.51 
      0.5600    50.0000     0.1600     1.724E-003   -14.30    1.653E-004   139.95    2.219E-004  -116.62 
      0.6400    50.0000     0.1600     1.180E-003   -43.40    2.281E-004    99.47    4.333E-004  -138.90 
      0.7200    50.0000     0.1600     7.795E-004  -114.43    2.499E-004    76.64    5.231E-004  -156.01 
      0.8000    50.0000     0.1600     1.317E-003  -171.67    1.907E-004    46.23    4.499E-004  -170.34 
      0.8800    50.0000     0.1600     1.673E-003   160.10    1.659E-004   -15.41    3.101E-004   176.04 
      0.9600    50.0000     0.1600     1.641E-003   126.19    2.426E-004   -57.42    2.091E-004   158.06 
      1.0400    50.0000     0.1600     1.821E-003    82.79    2.657E-004   -79.43    1.123E-004   177.50 
      1.1200    50.0000     0.1600     2.305E-003    51.87    2.024E-004  -108.35    2.612E-004  -110.80 
      1.2000    50.0000     0.1600     2.403E-003    32.99    1.644E-004  -167.88    5.393E-004  -105.21 
      1.2800    50.0000     0.1600     1.802E-003    16.08    2.312E-004   145.03    7.296E-004  -109.10 
      1.3600    50.0000     0.1600     7.782E-004   -16.35    2.558E-004   119.03    7.863E-004  -118.55 
      1.4400    50.0000     0.1600     5.878E-004  -132.42    1.904E-004    85.57    6.572E-004  -127.56 
      1.5200    50.0000     0.1600     1.089E-003   176.82    1.685E-004    15.90    4.289E-004  -128.73 
      1.6000    50.0000     0.1600     1.467E-003   131.05    2.651E-004   -28.59    3.047E-004  -113.48 
      1.6800    50.0000     0.1600     2.228E-003    92.59    2.951E-004   -51.97    3.586E-004   -96.21 
      1.7600    50.0000     0.1600     3.041E-003    70.24    2.229E-004   -81.33    5.669E-004   -87.68 
      1.8400    50.0000     0.1600     3.249E-003    56.16    1.707E-004  -141.96    7.972E-004   -88.60 
      1.9200    50.0000     0.1600     2.605E-003    45.64    2.319E-004   165.65    9.135E-004   -96.29 
      2.0000    50.0000     0.1600     6.423E-004    83.19    2.550E-005   -96.38    6.434E-004   -96.89 
     -2.0000    50.0000     0.2000     1.138E-003    76.02    1.109E-004   -20.19    2.318E-004  -160.45 
     -1.9200    50.0000     0.2000     1.039E-003   101.72    2.795E-004    33.09    2.402E-004  -152.63 
     -1.8400    50.0000     0.2000     2.368E-003   112.57    2.517E-004    34.82    3.502E-004  -150.55 
     -1.7600    50.0000     0.2000     3.383E-003   117.23    1.534E-004    39.39    3.280E-004  -143.57 
     -1.6800    50.0000     0.2000     3.820E-003   119.65    1.702E-005    31.19    1.300E-004  -123.71 
     -1.6000    50.0000     0.2000     3.570E-003   119.71    1.113E-004  -128.79    1.675E-004    26.34 
     -1.5200    50.0000     0.2000     2.766E-003   116.51    1.914E-004  -131.55    4.478E-004    36.40 
     -1.4400    50.0000     0.2000     1.664E-003   108.80    2.245E-004  -141.24    6.265E-004    29.38 
     -1.3600    50.0000     0.2000     4.631E-004    84.27    2.436E-004  -157.69    6.278E-004    18.04 
     -1.2800    50.0000     0.2000     9.066E-004   -66.11    2.639E-004  -172.50    5.661E-004     4.44 
     -1.2000    50.0000     0.2000     2.180E-003   -78.22    2.425E-004   178.22    5.208E-004    -7.78 
     -1.1200    50.0000     0.2000     3.163E-003   -83.64    1.538E-004   163.09    3.641E-004   -11.25 
     -1.0400    50.0000     0.2000     3.549E-003   -88.29    8.463E-005    92.22    5.901E-005   -27.47 
     -0.9600    50.0000     0.2000     3.233E-003   -95.05    1.684E-004    40.01    2.680E-004  -165.48 
     -0.8800    50.0000     0.2000     2.425E-003  -107.66    2.313E-004    24.72    4.740E-004  -171.36 
     -0.8000    50.0000     0.2000     1.521E-003  -131.96    2.314E-004     6.99    5.539E-004   172.95 
     -0.7200    50.0000     0.2000     8.594E-004   178.08    2.237E-004   -22.29    5.357E-004   151.43 
     -0.6400    50.0000     0.2000     1.013E-003    98.70    2.515E-004   -50.48    4.571E-004   128.98 
     -0.5600    50.0000     0.2000     1.923E-003    61.42    2.529E-004   -69.19    3.811E-004   110.92 
     -0.4800    50.0000     0.2000     2.783E-003    45.06    1.842E-004   -92.56    2.477E-004    95.38 
     -0.4000    50.0000     0.2000     3.106E-003    33.67    1.403E-004  -150.58    1.103E-004    -0.10 
     -0.3200    50.0000     0.2000     2.749E-003    19.96    2.168E-004   165.81    3.385E-004   -48.03 
     -0.2400    50.0000     0.2000     2.022E-003    -4.00    2.674E-004   147.51    4.310E-004   -61.75 
     -0.1600    50.0000     0.2000     1.529E-003   -44.13    2.390E-004   124.96    3.793E-004   -78.56 
     -0.0800    50.0000     0.2000     1.384E-003   -87.82    2.084E-004    84.77    3.260E-004  -118.49 
      0.0000    50.0000     0.2000     1.300E-003  -135.65    2.524E-004    45.55    3.131E-004  -160.99 
      0.0800    50.0000     0.2000     1.583E-003   176.88    2.804E-004    21.47    2.887E-004   166.39 
      0.1600    50.0000     0.2000     2.334E-003   145.35    2.196E-004    -4.63    2.060E-004   137.99 
      0.2400    50.0000     0.2000     2.598E-003   126.43    1.798E-004   -59.41    1.439E-004    82.94 
      0.3200    50.0000     0.2000     2.196E-003   102.30    2.546E-004  -101.75    2.494E-004    40.55 
      0.4000    50.0000     0.2000     1.707E-003    66.09    2.956E-004  -123.69    2.333E-004    28.94 
      0.4800    50.0000     0.2000     1.778E-003    19.02    2.434E-004  -147.97    8.402E-005   -19.35 
      0.5600    50.0000     0.2000     1.954E-003   -12.47    1.910E-004   163.29    2.428E-004  -116.24 
      0.6400    50.0000     0.2000     1.661E-003   -43.01    2.481E-004   115.59    4.450E-004  -136.48 
      0.7200    50.0000     0.2000     1.365E-003   -93.70    2.877E-004    89.83    5.158E-004  -153.84 
      0.8000    50.0000     0.2000     1.707E-003  -142.25    2.325E-004    61.18    4.201E-004  -168.67 
      0.8800    50.0000     0.2000     1.930E-003  -172.22    1.899E-004     3.30    2.619E-004   177.26 
      0.9600    50.0000     0.2000     1.649E-003   152.90    2.741E-004   -42.97    1.623E-004   159.09 
      1.0400    50.0000     0.2000     1.642E-003    97.85    3.172E-004   -65.76    9.459E-005  -165.13 
      1.1200    50.0000     0.2000     2.326E-003    58.77    2.531E-004   -91.41    2.883E-004  -105.99 
      1.2000    50.0000     0.2000     2.686E-003    37.71    1.839E-004  -146.41    5.568E-004  -101.94 
      1.2800    50.0000     0.2000     2.234E-003    18.88    2.504E-004   159.19    7.436E-004  -105.69 
      1.3600    50.0000     0.2000     1.277E-003   -14.15    2.973E-004   131.62    7.761E-004  -114.27 
      1.4400    50.0000     0.2000     8.773E-004   -90.41    2.356E-004   101.39    6.282E-004  -123.34 
      1.5200    50.0000     0.2000     1.114E-003  -149.25    1.847E-004    36.77    3.890E-004  -121.52 
      1.6000    50.0000     0.2000     1.262E-003   153.20    2.858E-004   -14.32    2.895E-004  -100.51 
      1.6800    50.0000     0.2000     2.073E-003   102.51    3.382E-004   -38.76    3.801E-004   -87.59 
      1.7600    50.0000     0.2000     3.153E-003    77.33    2.675E-004   -65.89    5.965E-004   -81.63 
      1.8400    50.0000     0.2000     3.599E-003    62.46    1.865E-004  -122.76    8.239E-004   -84.57 
      1.9200    50.0000     0.2000     3.051E-003    50.63    2.510E-004   178.49    9.159E-004   -91.72 
      2.0000    50.0000     0.2000     6.453E-004    88.95    2.510E-005   -90.62    6.464E-004   -91.12 
     -2.0000    50.0000     0.2400     2.797E-003    94.18    1.239E-004    52.13    2.502E-004  -150.06 
     -1.9200    50.0000     0.2400     1.934E-003   132.05    3.445E-004    55.87    2.520E-004  -143.56 
     -1.8400    50.0000     0.2400     3.499E-003   137.48    2.813E-004    56.33    3.093E-004  -143.51 
     -1.7600    50.0000     0.2400     4.616E-003   140.18    1.552E-004    61.75    2.815E-004  -129.44 
     -1.6800    50.0000     0.2400     4.980E-003   141.90    2.406E-005  -152.12    1.424E-004   -91.32 
     -1.6000    50.0000     0.2400     4.466E-003   142.51    1.844E-004  -120.43    1.980E-004    20.72 
     -1.5200    50.0000     0.2400     3.227E-003   141.28    2.893E-004  -119.04    4.726E-004    33.30 
     -1.4400    50.0000     0.2400     1.597E-003   137.53    3.277E-004  -124.21    6.426E-004    30.01 
     -1.3600    50.0000     0.2400     1.275E-004   -37.58    3.274E-004  -136.16    6.273E-004    19.39 
     -1.2800    50.0000     0.2400     1.796E-003   -52.72    3.134E-004  -150.46    5.431E-004     5.60 
     -1.2000    50.0000     0.2400     3.283E-003   -58.60    2.642E-004  -162.23    4.910E-004    -5.97 
     -1.1200    50.0000     0.2400     4.327E-003   -63.04    1.488E-004   177.35    3.348E-004    -1.25 
     -1.0400    50.0000     0.2400     4.618E-003   -66.91    9.279E-005    86.73    2.843E-005    31.01 
     -0.9600    50.0000     0.2400     4.028E-003   -71.78    2.244E-004    46.23    2.898E-004  -173.38 
     -0.8800    50.0000     0.2400     2.762E-003   -80.58    3.154E-004    34.65    4.788E-004  -173.95 
     -0.8000    50.0000     0.2400     1.278E-003  -102.70    3.237E-004    21.60    5.509E-004   172.15 
     -0.7200    50.0000     0.2400     6.422E-004   150.87    2.953E-004    -1.05    5.259E-004   151.60 
     -0.6400    50.0000     0.2400     1.756E-003    96.45    2.886E-004   -28.85    4.232E-004   129.53 
     -0.5600    50.0000     0.2400     2.952E-003    76.84    2.719E-004   -51.51    3.366E-004   111.16 
     -0.4800    50.0000     0.2400     3.853E-003    64.56    1.927E-004   -78.68    1.941E-004    97.59 
     -0.4000    50.0000     0.2400     4.075E-003    55.14    1.533E-004  -143.12    1.039E-004   -28.33 
     -0.3200    50.0000     0.2400     3.444E-003    44.81    2.616E-004   174.71    3.589E-004   -58.89 
     -0.2400    50.0000     0.2400     2.304E-003    31.64    3.261E-004   160.36    4.240E-004   -63.39 
     -0.1600    50.0000     0.2400     1.125E-003   -20.07    3.159E-004   138.04    3.738E-004   -80.93 
     -0.0800    50.0000     0.2400     1.186E-003   -97.11    2.653E-004   105.30    3.300E-004  -120.71 
      0.0000    50.0000     0.2400     1.799E-003  -143.19    2.791E-004    65.44    3.089E-004  -163.07 
      0.0800    50.0000     0.2400     2.567E-003  -175.03    2.987E-004    37.87    2.743E-004   161.82 
      0.1600    50.0000     0.2400     3.286E-003   163.66    2.388E-004     9.28    1.781E-004   129.28 
      0.2400    50.0000     0.2400     2.629E-003   146.09    2.232E-004   -36.88    1.459E-004    64.71 
      0.3200    50.0000     0.2400     2.818E-003   131.84    2.866E-004   -91.40    2.537E-004    33.87 
      0.4000    50.0000     0.2400     1.717E-003   100.99    3.479E-004  -113.04    2.254E-004    23.72 
      0.4800    50.0000     0.2400     1.310E-003    34.87    3.053E-004  -135.18    8.374E-005   -34.74 
      0.5600    50.0000     0.2400     1.740E-003   -13.45    2.334E-004  -176.46    2.598E-004  -114.22 
      0.6400    50.0000     0.2400     1.905E-003   -49.32    2.658E-004   133.63    4.471E-004  -133.55 
      0.7200    50.0000     0.2400     2.074E-003   -90.74    3.107E-004   104.05    5.025E-004  -152.17 
      0.8000    50.0000     0.2400     2.525E-003  -124.89    2.612E-004    75.16    3.937E-004  -167.69 
      0.8800    50.0000     0.2400     2.655E-003  -148.53    2.069E-004    19.74    2.207E-004   178.09 
      0.9600    50.0000     0.2400     2.062E-003  -174.07    2.933E-004   -29.99    1.194E-004   161.23 
      1.0400    50.0000     0.2400     1.352E-003   131.56    3.554E-004   -54.24    8.327E-005  -137.23 
      1.1200    50.0000     0.2400     1.866E-003    69.88    3.014E-004   -78.40    3.092E-004  -101.38 
      1.2000    50.0000     0.2400     2.463E-003    41.70    2.129E-004  -126.89    5.805E-004   -98.66 
      1.2800    50.0000     0.2400     2.278E-003    17.81    2.625E-004   175.18    7.440E-004  -102.07 
      1.3600    50.0000     0.2400     1.659E-003   -20.93    3.227E-004   144.56    7.605E-004  -110.73 
      1.4400    50.0000     0.2400     1.551E-003   -76.53    2.707E-004   115.38    6.008E-004  -119.34 
      1.5200    50.0000     0.2400     1.648E-003  -117.51    2.007E-004    56.29    3.586E-004  -113.80 
      1.6000    50.0000     0.2400     1.298E-003  -164.22    2.941E-004     0.11    2.903E-004   -87.51 
      1.6800    50.0000     0.2400     1.591E-003   123.44    3.640E-004   -26.11    4.226E-004   -79.73 
      1.7600    50.0000     0.2400     2.750E-003    87.44    3.034E-004   -52.15    6.341E-004   -77.56 
      1.8400    50.0000     0.2400     3.400E-003    69.54    2.049E-004  -104.29    8.457E-004   -80.49 
      1.9200    50.0000     0.2400     3.009E-003    54.97    2.588E-004  -167.41    9.129E-004   -87.05 
      2.0000    50.0000     0.2400     6.483E-004    94.61    2.470E-005   -84.97    6.495E-004   -85.46 
     -2.0000    50.0000     0.2800     4.752E-003   100.82    2.499E-004    83.85    2.690E-004  -142.70 
     -1.9200    50.0000     0.2800     3.034E-003   142.05    4.211E-004    74.71    2.576E-004  -131.07 
     -1.8400    50.0000     0.2800     4.829E-003   150.67    3.257E-004    78.08    3.085E-004  -123.84 
     -1.7600    50.0000     0.2800     6.029E-003   154.85    1.654E-004    89.71    2.878E-004  -114.96 
     -1.6800    50.0000     0.2800     6.309E-003   157.80    7.811E-005  -155.31    1.713E-004   -75.10 
     -1.6000    50.0000     0.2800     5.550E-003   160.33    2.546E-004  -117.30    2.289E-004    11.06 
     -1.5200    50.0000     0.2800     3.924E-003   163.23    3.833E-004  -112.15    4.768E-004    32.84 
     -1.4400    50.0000     0.2800     1.846E-003   172.39    4.307E-004  -114.05    6.336E-004    29.63 
     -1.3600    50.0000     0.2800     8.314E-004   -81.99    4.195E-004  -121.44    6.066E-004    21.66 
     -1.2800    50.0000     0.2800     2.723E-003   -49.45    3.737E-004  -132.08    5.073E-004     6.93 
     -1.2000    50.0000     0.2800     4.469E-003   -48.29    2.875E-004  -142.18    4.469E-004    -2.82 
     -1.1200    50.0000     0.2800     5.613E-003   -49.79    1.392E-004  -160.28    2.756E-004     7.25 
     -1.0400    50.0000     0.2800     5.845E-003   -51.60    8.958E-005    76.53    6.542E-005   114.90 
     -0.9600    50.0000     0.2800     5.044E-003   -53.69    2.686E-004    49.22    3.093E-004   176.54 
     -0.8800    50.0000     0.2800     3.408E-003   -56.44    3.836E-004    41.06    4.757E-004  -176.58 
     -0.8000    50.0000     0.2800     1.378E-003   -58.21    4.079E-004    30.91    5.471E-004   170.88 
     -0.7200    50.0000     0.2800     6.748E-004    92.36    3.732E-004    13.73    5.157E-004   151.78 
     -0.6400    50.0000     0.2800     2.475E-003    92.64    3.349E-004    -9.79    3.969E-004   130.26 
     -0.5600    50.0000     0.2800     4.000E-003    84.34    2.856E-004   -32.77    2.836E-004   111.35 
     -0.4800    50.0000     0.2800     5.023E-003    76.69    1.848E-004   -62.25    1.349E-004    99.42 
     -0.4000    50.0000     0.2800     5.213E-003    70.14    1.463E-004  -137.94    1.243E-004   -52.80 
     -0.3200    50.0000     0.2800     4.406E-003    63.56    2.839E-004  -179.83    3.807E-004   -63.01 
     -0.2400    50.0000     0.2800     2.815E-003    54.70    3.835E-004   163.42    4.167E-004   -66.87 
     -0.1600    50.0000     0.2800     9.530E-004    34.38    3.816E-004   147.09    3.724E-004   -86.49 
     -0.0800    50.0000     0.2800     8.440E-004  -123.88    3.265E-004   120.04    3.357E-004  -122.26 
      0.0000    50.0000     0.2800     2.233E-003  -152.04    3.099E-004    84.18    3.023E-004  -164.58 
      0.0800    50.0000     0.2800     3.444E-003  -170.90    3.079E-004    54.35    2.609E-004   155.95 
      0.1600    50.0000     0.2800     4.328E-003   174.48    2.424E-004    23.55    1.732E-004   120.31 
      0.2400    50.0000     0.2800     4.500E-003   162.88    1.936E-004   -35.16    1.652E-004    50.67 
      0.3200    50.0000     0.2800     3.723E-003   151.56    2.975E-004   -82.41    2.635E-004    27.44 
      0.4000    50.0000     0.2800     2.223E-003   134.75    3.774E-004  -104.63    2.244E-004    19.48 
      0.4800    50.0000     0.2800     7.908E-004    79.88    3.515E-004  -125.61    1.033E-004   -43.34 
      0.5600    50.0000     0.2800     1.198E-003   -20.83    2.790E-004  -161.41    2.721E-004  -111.04 
      0.6400    50.0000     0.2800     1.987E-003   -60.02    2.846E-004   151.49    4.398E-004  -130.96 
      0.7200    50.0000     0.2800     2.730E-003   -91.80    3.198E-004   118.77    4.832E-004  -151.09 
      0.8000    50.0000     0.2800     3.429E-003  -115.91    2.728E-004    88.62    3.693E-004  -167.81 
      0.8800    50.0000     0.2800     3.594E-003  -133.75    2.132E-004    34.42    1.915E-004  -179.77 
      0.9600    50.0000     0.2800     2.880E-003  -151.25    2.962E-004   -18.15    7.642E-005   165.94 
      1.0400    50.0000     0.2800     1.582E-003   177.03    3.728E-004   -44.12    8.969E-005  -116.41 
      1.1200    50.0000     0.2800     1.154E-003    94.19    3.337E-004   -68.13    3.309E-004   -96.03 
      1.2000    50.0000     0.2800     1.827E-003    45.26    2.438E-004  -111.40    5.895E-004   -94.79 
      1.2800    50.0000     0.2800     1.998E-003    12.58    2.705E-004  -168.39    7.356E-004   -98.45 
      1.3600    50.0000     0.2800     1.953E-003   -30.45    3.311E-004   157.75    7.391E-004  -107.45 
      1.4400    50.0000     0.2800     2.292E-003   -72.23    2.895E-004   128.11    5.751E-004  -115.67 
      1.5200    50.0000     0.2800     2.460E-003  -101.05    2.131E-004    73.42    3.381E-004  -105.93 
      1.6000    50.0000     0.2800     1.905E-003  -130.52    2.909E-004    14.51    3.055E-004   -75.86 
      1.6800    50.0000     0.2800     1.271E-003   166.28    3.698E-004   -14.15    4.608E-004   -71.96 
      1.7600    50.0000     0.2800     2.031E-003   104.29    3.236E-004   -40.18    6.685E-004   -73.45 
      1.8400    50.0000     0.2800     2.758E-003    78.75    2.218E-004   -88.28    8.623E-004   -76.33 
      1.9200    50.0000     0.2800     2.535E-003    59.26    2.584E-004  -152.55    9.051E-004   -82.34 
      2.0000    50.0000     0.2800     6.514E-004   100.14    2.429E-005   -79.45    6.526E-004   -79.92 
     -2.0000    50.0000     0.3200     4.811E-003   107.29    2.454E-004    91.04    3.050E-004  -135.02 
     -1.9200    50.0000     0.3200     3.883E-003   147.21    4.808E-004    89.49    2.730E-004  -117.38 
     -1.8400    50.0000     0.3200     5.784E-003   159.10    3.635E-004    95.44    3.315E-004  -112.64 
     -1.7600    50.0000     0.3200     7.024E-003   165.18    1.890E-004   114.78    3.165E-004  -102.00 
     -1.6800    50.0000     0.3200     7.255E-003   169.62    1.297E-004  -153.75    2.352E-004   -66.19 
     -1.6000    50.0000     0.3200     6.373E-003   173.94    3.036E-004  -115.23    2.364E-004     0.17 
     -1.5200    50.0000     0.3200     4.575E-003  -179.84    4.403E-004  -106.98    4.673E-004    30.32 
     -1.4400    50.0000     0.3200     2.372E-003  -162.12    4.973E-004  -106.37    6.253E-004    30.18 
     -1.3600    50.0000     0.3200     1.557E-003   -84.38    4.824E-004  -110.62    5.640E-004    22.15 
     -1.2800    50.0000     0.3200     3.410E-003   -47.43    4.188E-004  -117.42    4.522E-004    10.20 
     -1.2000    50.0000     0.3200     5.288E-003   -41.34    3.051E-004  -123.83    3.849E-004     1.73 
     -1.1200    50.0000     0.3200     6.500E-003   -40.24    1.364E-004  -133.51    1.997E-004    18.12 
     -1.0400    50.0000     0.3200     6.721E-003   -40.18    8.272E-005    61.21    1.288E-004   129.64 
     -0.9600    50.0000     0.3200     5.844E-003   -40.11    2.848E-004    51.36    3.442E-004   171.20 
     -0.8800    50.0000     0.3200     4.075E-003   -38.71    4.159E-004    46.47    4.937E-004   179.09 
     -0.8000    50.0000     0.3200     1.917E-003   -27.26    4.553E-004    38.20    5.398E-004   169.49 
     -0.7200    50.0000     0.3200     1.169E-003    62.79    4.253E-004    24.76    5.034E-004   152.26 
     -0.6400    50.0000     0.3200     2.993E-003    90.38    3.690E-004     5.88    3.612E-004   131.84 
     -0.5600    50.0000     0.3200     4.706E-003    89.49    2.912E-004   -14.65    2.248E-004   111.41 
     -0.4800    50.0000     0.3200     5.829E-003    85.38    1.677E-004   -43.11    7.249E-005    99.21 
     -0.4000    50.0000     0.3200     6.042E-003    81.11    1.234E-004  -132.58    1.878E-004   -65.10 
     -0.3200    50.0000     0.3200     5.242E-003    79.33    2.608E-004  -172.93    3.917E-004   -67.69 
     -0.2400    50.0000     0.3200     3.509E-003    73.57    3.949E-004   169.41    4.215E-004   -70.36 
     -0.1600    50.0000     0.3200     1.458E-003    76.86    4.110E-004   154.32    3.799E-004   -89.55 
     -0.0800    50.0000     0.3200     8.424E-004  -170.28    3.658E-004   131.17    3.425E-004  -122.83 
      0.0000    50.0000     0.3200     2.534E-003  -158.98    3.317E-004   100.26    2.914E-004  -165.24 
      0.0800    50.0000     0.3200     4.027E-003  -168.07    3.045E-004    70.83    2.460E-004   148.81 
      0.1600    50.0000     0.3200     5.057E-003  -177.92    2.276E-004    38.69    1.756E-004   106.30 
      0.2400    50.0000     0.3200     5.285E-003   173.32    1.751E-004   -23.89    1.853E-004    41.56 
      0.3200    50.0000     0.3200     3.908E-003   159.90    2.982E-004   -63.89    2.764E-004    21.76 
      0.4000    50.0000     0.3200     2.932E-003   155.69    3.754E-004   -97.08    2.258E-004    14.34 
      0.4800    50.0000     0.3200     1.056E-003   143.18    3.673E-004  -117.87    1.186E-004   -49.68 
      0.5600    50.0000     0.3200     6.265E-004   -50.67    3.069E-004  -150.05    2.766E-004  -107.07 
      0.6400    50.0000     0.3200     1.985E-003   -72.06    2.957E-004   167.60    4.235E-004  -128.50 
      0.7200    50.0000     0.3200     3.167E-003   -92.70    3.121E-004   133.66    4.590E-004  -151.67 
      0.8000    50.0000     0.3200     4.082E-003  -109.87    2.650E-004   102.02    3.491E-004  -168.22 
      0.8800    50.0000     0.3200     4.335E-003  -123.81    2.045E-004    48.13    1.577E-004  -179.79 
      0.9600    50.0000     0.3200     3.654E-003  -137.22    2.796E-004    -6.66    4.293E-005  -176.74 
      1.0400    50.0000     0.3200     2.238E-003  -155.49    3.607E-004   -34.49    1.103E-004   -95.57 
      1.1200    50.0000     0.3200     8.266E-004   154.52    3.381E-004   -59.17    3.507E-004   -90.34 
      1.2000    50.0000     0.3200     9.849E-004    49.50    2.614E-004   -99.24    5.927E-004   -90.63 
      1.2800    50.0000     0.3200     1.558E-003     2.14    2.710E-004  -152.60    7.196E-004   -94.83 
      1.3600    50.0000     0.3200     2.143E-003   -38.83    3.202E-004   171.29    7.128E-004  -104.45 
      1.4400    50.0000     0.3200     2.855E-003   -69.47    2.860E-004   140.32    5.510E-004  -112.38 
      1.5200    50.0000     0.3200     3.146E-003   -91.44    2.145E-004    88.32    3.266E-004   -98.22 
      1.6000    50.0000     0.3200     2.621E-003  -113.17    2.770E-004    28.99    3.412E-004   -69.34 
      1.6800    50.0000     0.3200     1.590E-003  -151.10    3.532E-004    -2.25    4.959E-004   -66.27 
      1.7600    50.0000     0.3200     1.398E-003   136.21    3.200E-004   -29.20    6.986E-004   -69.27 
      1.8400    50.0000     0.3200     1.919E-003    93.61    2.285E-004   -74.85    8.736E-004   -72.15 
      1.9200    50.0000     0.3200     1.798E-003    64.99    2.496E-004  -137.42    8.935E-004   -77.65 
      2.0000    50.0000     0.3200     6.545E-004   105.58    2.389E-005   -74.01    6.557E-004   -74.48 
     -2.0000    50.0000     0.3600     5.458E-003   113.82    2.900E-004   102.27    3.346E-004  -129.19 
     -1.9200    50.0000     0.3600     4.174E-003   151.86    4.928E-004   102.34    3.002E-004  -105.14 
     -1.8400    50.0000     0.3600     5.974E-003   166.56    3.718E-004   110.53    3.597E-004  -103.51 
     -1.7600    50.0000     0.3600     7.160E-003   174.41    2.097E-004   134.92    3.541E-004   -87.71 
     -1.6800    50.0000     0.3600     7.377E-003  -179.84    1.618E-004  -150.59    3.012E-004   -60.97 
     -1.6000    50.0000     0.3600     6.531E-003  -174.16    3.116E-004  -111.74    2.712E-004    -9.26 
     -1.5200    50.0000     0.3600     4.820E-003  -165.96    4.419E-004  -101.25    4.418E-004    24.02 
     -1.4400    50.0000     0.3600     2.780E-003  -145.47    4.988E-004   -98.95    5.879E-004    29.88 
     -1.3600    50.0000     0.3600     2.015E-003   -83.11    4.876E-004  -100.74    5.399E-004    24.74 
     -1.2800    50.0000     0.3600     3.608E-003   -44.42    4.206E-004  -104.38    3.770E-004    13.68 
     -1.2000    50.0000     0.3600     5.411E-003   -34.63    3.065E-004  -107.82    2.913E-004     6.81 
     -1.1200    50.0000     0.3600     6.599E-003   -31.46    1.357E-004  -107.18    1.563E-004    38.84 
     -1.0400    50.0000     0.3600     6.834E-003   -29.96    7.644E-005    45.89    1.914E-004   134.95 
     -0.9600    50.0000     0.3600     6.026E-003   -28.46    2.677E-004    54.67    3.777E-004   167.19 
     -0.8800    50.0000     0.3600     4.374E-003   -24.87    3.973E-004    52.31    4.962E-004   176.65 
     -0.8000    50.0000     0.3600     2.386E-003    -9.99    4.436E-004    45.69    5.438E-004   169.77 
     -0.7200    50.0000     0.3600     1.579E-003    54.77    4.277E-004    34.76    4.887E-004   152.95 
     -0.6400    50.0000     0.3600     3.109E-003    90.61    3.694E-004    19.70    3.234E-004   134.47 
     -0.5600    50.0000     0.3600     4.792E-003    94.92    2.793E-004     2.61    1.620E-004   111.55 
     -0.4800    50.0000     0.3600     5.922E-003    93.46    1.469E-004   -21.58    1.116E-005    79.69 
     -0.4000    50.0000     0.3600     6.174E-003    90.86    8.965E-005  -126.57    2.350E-004   -68.44 
     -0.3200    50.0000     0.3600     5.428E-003    88.35    2.481E-004  -169.63    4.045E-004   -72.36 
     -0.2400    50.0000     0.3600     3.874E-003    87.27    3.627E-004   176.54    4.392E-004   -74.80 
     -0.1600    50.0000     0.3600     1.989E-003    95.59    3.918E-004   161.95    3.874E-004   -91.74 
     -0.0800    50.0000     0.3600     1.129E-003   164.47    3.635E-004   141.24    3.480E-004  -122.44 
      0.0000    50.0000     0.3600     2.554E-003  -162.54    3.271E-004   114.64    2.743E-004  -164.88 
      0.0800    50.0000     0.3600     4.086E-003  -164.37    2.833E-004    87.40    2.325E-004   141.05 
      0.1600    50.0000     0.3600     5.162E-003  -170.75    1.993E-004    55.37    1.895E-004    93.91 
      0.2400    50.0000     0.3600     5.449E-003  -177.52    1.448E-004   -11.54    2.164E-004    40.01 
      0.3200    50.0000     0.3600     4.791E-003   175.81    2.443E-004   -64.98    2.906E-004    16.83 
      0.4000    50.0000     0.3600     3.364E-003   169.41    3.353E-004   -88.54    2.251E-004     8.13 
      0.4800    50.0000     0.3600     1.617E-003   167.61    3.423E-004  -109.88    1.418E-004   -51.21 
      0.5600    50.0000     0.3600     5.813E-004  -114.58    3.026E-004  -139.93    2.755E-004  -101.36 
      0.6400    50.0000     0.3600     1.864E-003   -81.70    2.876E-004  -177.58    3.943E-004  -125.78 
      0.7200    50.0000     0.3600     3.204E-003   -91.78    2.863E-004   149.11    4.335E-004  -151.26 
      0.8000    50.0000     0.3600     4.215E-003  -103.93    2.370E-004   116.37    3.304E-004  -170.13 
      0.8800    50.0000     0.3600     4.543E-003  -115.28    1.809E-004    62.16    1.372E-004  -179.95 
      0.9600    50.0000     0.3600     3.988E-003  -126.67    2.430E-004     5.86    2.689E-005  -121.07 
      1.0400    50.0000     0.3600     2.722E-003  -140.29    3.173E-004   -23.86    1.391E-004   -80.90 
      1.1200    50.0000     0.3600     1.227E-003  -161.12    3.082E-004   -49.90    3.693E-004   -84.40 
      1.2000    50.0000     0.3600     1.956E-004    73.07    2.539E-004   -88.52    5.909E-004   -86.28 
      1.2800    50.0000     0.3600     1.115E-003   -13.26    2.574E-004  -137.35    6.974E-004   -91.26 
      1.3600    50.0000     0.3600     2.118E-003   -43.73    2.890E-004  -173.98    6.824E-004  -101.74 
      1.4400    50.0000     0.3600     3.021E-003   -65.78    2.580E-004   153.39    5.283E-004  -109.45 
      1.5200    50.0000     0.3600     3.399E-003   -83.61    1.972E-004   102.12    3.112E-004   -92.85 
      1.6000    50.0000     0.3600     2.993E-003  -102.09    2.462E-004    43.60    3.647E-004   -61.59 
      1.6800    50.0000     0.3600     2.031E-003  -129.35    3.114E-004    10.61    5.302E-004   -60.83 
      1.7600    50.0000     0.3600     1.290E-003   178.88    2.882E-004   -17.86    7.238E-004   -64.97 
      1.8400    50.0000     0.3600     1.242E-003   122.22    2.171E-004   -62.79    8.797E-004   -67.95 
      1.9200    50.0000     0.3600     1.038E-003    78.05    2.307E-004  -121.84    8.791E-004   -73.07 
      2.0000    50.0000     0.3600     6.576E-004   110.88    2.347E-005   -68.71    6.589E-004   -69.17 
     -2.0000    50.0000     0.4000     5.900E-003   122.93    3.477E-004   117.81    3.649E-004  -129.47 
     -1.9200    50.0000     0.4000     3.743E-003   158.42    4.441E-004   116.38    3.304E-004   -96.54 
     -1.8400    50.0000     0.4000     5.242E-003   176.04    3.385E-004   126.13    3.809E-004   -95.82 
     -1.7600    50.0000     0.4000     6.281E-003  -174.40    2.053E-004   150.25    4.254E-004   -84.14 
     -1.6800    50.0000     0.4000     6.516E-003  -167.55    1.617E-004  -144.90    3.637E-004   -56.62 
     -1.6000    50.0000     0.4000     5.856E-003  -161.02    2.714E-004  -105.12    3.123E-004   -16.11 
     -1.5200    50.0000     0.4000     4.463E-003  -152.04    3.769E-004   -92.63    4.257E-004    19.13 
     -1.4400    50.0000     0.4000     2.786E-003  -132.11    4.283E-004   -88.67    5.614E-004    27.70 
     -1.3600    50.0000     0.4000     2.022E-003   -79.46    4.251E-004   -88.87    4.857E-004    26.66 
     -1.2800    50.0000     0.4000     3.180E-003   -38.37    3.705E-004   -90.21    3.261E-004    21.02 
     -1.2000    50.0000     0.4000     4.709E-003   -25.41    2.755E-004   -91.21    1.765E-004    20.14 
     -1.1200    50.0000     0.4000     5.766E-003   -20.53    1.307E-004   -83.53    1.397E-004    64.59 
     -1.0400    50.0000     0.4000     6.028E-003   -17.98    6.504E-005    36.72    2.495E-004   137.01 
     -0.9600    50.0000     0.4000     5.413E-003   -15.71    2.163E-004    61.93    4.069E-004   164.35 
     -0.8800    50.0000     0.4000     4.084E-003   -11.48    3.259E-004    61.72    4.949E-004   174.20 
     -0.8000    50.0000     0.4000     2.457E-003     2.61    3.731E-004    56.11    5.281E-004   168.77 
     -0.7200    50.0000     0.4000     1.617E-003    53.83    3.707E-004    46.50    4.578E-004   155.70 
     -0.6400    50.0000     0.4000     2.694E-003    94.69    3.264E-004    34.63    2.840E-004   138.74 
     -0.5600    50.0000     0.4000     4.404E-003   103.94    2.438E-004    24.31    9.668E-005   112.72 
     -0.4800    50.0000     0.4000     5.165E-003   103.78    1.255E-004     2.38    5.677E-005   -60.37 
     -0.4000    50.0000     0.4000     5.360E-003   104.37    3.700E-005   -96.87    2.749E-004   -72.79 
     -0.3200    50.0000     0.4000     4.899E-003   100.51    1.900E-004  -159.00    4.262E-004   -74.26 
     -0.2400    50.0000     0.4000     3.747E-003   104.15    3.012E-004  -173.03    4.439E-004   -76.85 
     -0.1600    50.0000     0.4000     2.136E-003   107.40    3.225E-004   172.83    3.929E-004   -93.09 
     -0.0800    50.0000     0.4000     1.213E-003   155.76    3.133E-004   153.29    3.494E-004  -120.82 
      0.0000    50.0000     0.4000     2.163E-003  -161.50    2.883E-004   129.94    2.491E-004  -163.72 
      0.0800    50.0000     0.4000     3.512E-003  -157.55    2.428E-004   105.74    2.176E-004   132.25 
      0.1600    50.0000     0.4000     4.508E-003  -161.32    1.627E-004    75.41    2.088E-004    84.10 
      0.2400    50.0000     0.4000     4.833E-003  -166.75    1.083E-004     6.84    2.381E-004    36.83 
      0.3200    50.0000     0.4000     4.363E-003  -172.77    1.870E-004   -50.80    2.859E-004    14.09 
      0.4000    50.0000     0.4000     2.617E-003   168.48    2.721E-004   -70.70    2.276E-004     1.31 
      0.4800    50.0000     0.4000     1.851E-003   179.58    2.769E-004   -98.54    1.673E-004   -52.56 
      0.5600    50.0000     0.4000     7.757E-004  -141.98    2.603E-004  -128.03    2.723E-004   -98.03 
      0.6400    50.0000     0.4000     1.501E-003   -86.40    2.533E-004  -161.97    3.694E-004  -123.84 
      0.7200    50.0000     0.4000     2.731E-003   -87.22    2.427E-004   167.08    4.019E-004  -152.56 
      0.8000    50.0000     0.4000     3.694E-003   -95.61    1.939E-004   134.09    3.150E-004  -172.95 
      0.8800    50.0000     0.4000     4.059E-003  -105.22    1.464E-004    79.46    1.206E-004  -179.91 
      0.9600    50.0000     0.4000     3.679E-003  -115.89    1.923E-004    22.51    4.463E-005   -72.22 
      1.0400    50.0000     0.4000     2.713E-003  -128.74    2.492E-004    -9.07    1.716E-004   -70.40 
      1.1200    50.0000     0.4000     1.526E-003  -144.50    2.466E-004   -37.42    3.865E-004   -78.41 
      1.2000    50.0000     0.4000     4.172E-004  -152.31    2.177E-004   -76.59    5.856E-004   -81.83 
      1.2800    50.0000     0.4000     6.907E-004   -29.92    2.265E-004  -120.95    6.707E-004   -87.77 
      1.3600    50.0000     0.4000     1.756E-003   -43.43    2.422E-004  -155.87    6.490E-004   -99.31 
      1.4400    50.0000     0.4000     2.659E-003   -59.04    2.103E-004   170.19    5.064E-004  -106.80 
      1.5200    50.0000     0.4000     3.057E-003   -74.30    1.635E-004   117.94    3.105E-004   -87.35 
      1.6000    50.0000     0.4000     2.797E-003   -91.92    2.018E-004    60.92    3.921E-004   -54.67 
      1.6800    50.0000     0.4000     2.096E-003  -116.93    2.501E-004    27.06    5.628E-004   -55.51 
      1.7600    50.0000     0.4000     1.454E-003  -155.10    2.318E-004    -3.48    7.436E-004   -60.58 
      1.8400    50.0000     0.4000     7.858E-004   167.54    1.867E-004   -49.68    8.809E-004   -63.79 
      1.9200    50.0000     0.4000     6.041E-004   119.11    2.021E-004  -104.50    8.626E-004   -68.67 
      2.0000    50.0000     0.4000     6.608E-004   116.08    2.306E-005   -63.52    6.621E-004   -63.97 
     -2.0000    50.0000     0.4400     4.521E-003   138.79    1.988E-004   134.51    3.827E-004  -125.95 
     -1.9200    50.0000     0.4400     2.672E-003   171.75    3.516E-004   136.70    3.570E-004   -90.95 
     -1.8400    50.0000     0.4400     3.802E-003  -166.52    2.781E-004   147.40    4.025E-004   -86.04 
     -1.7600    50.0000     0.4400     4.675E-003  -155.37    1.736E-004   169.44    4.486E-004   -78.17 
     -1.6800    50.0000     0.4400     4.960E-003  -147.99    1.280E-004  -133.54    4.187E-004   -52.40 
     -1.6000    50.0000     0.4400     4.565E-003  -141.60    1.922E-004   -89.63    3.564E-004   -20.23 
     -1.5200    50.0000     0.4400     3.591E-003  -133.59    2.660E-004   -74.63    4.128E-004    13.61 
     -1.4400    50.0000     0.4400     2.335E-003  -117.19    3.078E-004   -69.61    5.142E-004    26.11 
     -1.3600    50.0000     0.4400     1.535E-003   -71.47    3.140E-004   -68.70    4.423E-004    30.55 
     -1.2800    50.0000     0.4400     2.211E-003   -23.62    2.852E-004   -68.63    2.609E-004    30.55 
     -1.2000    50.0000     0.4400     3.387E-003    -7.38    2.218E-004   -68.56    1.233E-004    35.84 
     -1.1200    50.0000     0.4400     4.269E-003    -1.43    1.166E-004   -59.82    1.692E-004    97.90 
     -1.0400    50.0000     0.4400     4.559E-003     1.36    4.315E-005    39.13    3.070E-004   138.85 
     -0.9600    50.0000     0.4400     4.186E-003     3.25    1.444E-004    81.63    4.320E-004   162.59 
     -0.8800    50.0000     0.4400     3.260E-003     6.17    2.240E-004    82.31    4.905E-004   171.93 
     -0.8000    50.0000     0.4400     2.056E-003    16.13    2.651E-004    76.20    5.147E-004   167.96 
     -0.7200    50.0000     0.4400     1.200E-003    57.97    2.747E-004    66.69    4.377E-004   157.03 
     -0.6400    50.0000     0.4400     1.801E-003   108.44    2.544E-004    55.92    2.312E-004   141.72 
     -0.5600    50.0000     0.4400     2.924E-003   120.68    1.946E-004    44.92    3.150E-005   122.26 
     -0.4800    50.0000     0.4400     3.780E-003   122.34    1.076E-004    29.44    1.210E-004   -54.70 
     -0.4000    50.0000     0.4400     4.084E-003   121.10    3.487E-005   -75.06    3.104E-004   -75.36 
     -0.3200    50.0000     0.4400     3.755E-003   118.72    1.271E-004  -133.07    4.486E-004   -74.76 
     -0.2400    50.0000     0.4400     2.910E-003   116.51    1.976E-004  -148.81    4.431E-004   -78.43 
     -0.1600    50.0000     0.4400     1.806E-003   119.12    2.256E-004  -165.58    3.936E-004   -93.55 
     -0.0800    50.0000     0.4400     9.075E-004   152.89    2.306E-004   173.44    3.448E-004  -118.04 
      0.0000    50.0000     0.4400     1.370E-003  -150.19    2.249E-004   151.33    2.167E-004  -160.74 
      0.0800    50.0000     0.4400     2.427E-003  -141.40    1.933E-004   129.96    2.007E-004   122.03 
      0.1600    50.0000     0.4400     3.268E-003  -143.78    1.288E-004   102.18    2.289E-004    76.51 
      0.2400    50.0000     0.4400     3.600E-003  -148.95    8.214E-005    36.78    2.523E-004    36.51 
      0.3200    50.0000     0.4400     3.331E-003  -155.70    1.338E-004   -23.17    2.950E-004    12.51 
      0.4000    50.0000     0.4400     2.587E-003  -163.81    1.826E-004   -49.68    2.357E-004    -4.09 
      0.4800    50.0000     0.4400     1.618E-003  -170.90    1.928E-004   -76.54    1.792E-004   -53.15 
      0.5600    50.0000     0.4400     6.924E-004  -157.46    1.911E-004  -108.99    2.745E-004   -92.76 
      0.6400    50.0000     0.4400     8.359E-004   -80.90    2.015E-004  -141.14    3.350E-004  -121.64 
      0.7200    50.0000     0.4400     1.815E-003   -72.90    1.944E-004  -168.62    3.702E-004  -154.81 
      0.8000    50.0000     0.4400     2.640E-003   -79.14    1.506E-004   159.80    3.027E-004  -176.19 
      0.8800    50.0000     0.4400     2.997E-003   -88.22    1.129E-004   105.13    1.069E-004  -179.71 
      0.9600    50.0000     0.4400     2.785E-003   -99.81    1.450E-004    49.56    7.207E-005   -56.06 
      1.0400    50.0000     0.4400     2.161E-003  -115.46    1.798E-004    17.29    2.046E-004   -62.37 
      1.1200    50.0000     0.4400     1.412E-003  -135.90    1.723E-004   -14.42    4.023E-004   -72.55 
      1.2000    50.0000     0.4400     6.828E-004  -156.02    1.613E-004   -58.31    5.777E-004   -77.41 
      1.2800    50.0000     0.4400     1.767E-004   -46.12    1.851E-004   -99.89    6.412E-004   -84.41 
      1.3600    50.0000     0.4400     1.055E-003   -30.95    1.959E-004  -130.43    6.138E-004   -97.10 
      1.4400    50.0000     0.4400     1.830E-003   -43.12    1.623E-004  -162.65    4.633E-004  -104.46 
[...]
     -0.3200    50.0000     1.8800     4.872E-003   -48.38    2.530E-004    35.78    6.631E-004    -5.52 
     -0.2400    50.0000     1.8800     3.372E-003   -42.22    3.600E-004    27.91    6.135E-004    11.34 
     -0.1600    50.0000     1.8800     1.906E-003   -15.36    3.809E-004    18.33    5.533E-004    27.76 
     -0.0800    50.0000     1.8800     2.009E-003    38.50    3.318E-004     1.83    5.245E-004    45.80 
      0.0000    50.0000     1.8800     3.251E-003    55.19    2.704E-004   -23.78    5.544E-004    66.16 
      0.0800    50.0000     1.8800     4.377E-003    54.27    2.151E-004   -52.27    6.310E-004    81.09 
      0.1600    50.0000     1.8800     5.054E-003    49.46    1.286E-004   -88.36    6.911E-004    86.11 
      0.2400    50.0000     1.8800     5.052E-003    44.97    1.094E-004   179.66    7.225E-004    87.57 
      0.3200    50.0000     1.8800     4.256E-003    42.81    2.356E-004   137.88    7.235E-004    94.11 
      0.4000    50.0000     1.8800     2.851E-003    46.81    3.252E-004   121.58    6.822E-004   106.36 
      0.4800    50.0000     1.8800     1.531E-003    74.97    3.267E-004   106.46    6.082E-004   120.06 
      0.5600    50.0000     1.8800     1.758E-003   127.26    2.611E-004    81.97    5.506E-004   134.92 
      0.6400    50.0000     1.8800     2.807E-003   136.42    2.150E-004    40.78    5.755E-004   151.63 
      0.7200    50.0000     1.8800     3.704E-003   129.17    2.144E-004     2.08    6.712E-004   163.54 
      0.8000    50.0000     1.8800     4.275E-003   118.97    1.742E-004   -32.45    7.476E-004   166.55 
      0.8800    50.0000     1.8800     4.299E-003   110.31    1.356E-004   -96.45    7.732E-004   164.35 
      0.9600    50.0000     1.8800     3.596E-003   104.96    2.195E-004  -150.37    7.699E-004   165.15 
      1.0400    50.0000     1.8800     2.305E-003   106.58    2.940E-004  -173.90    7.349E-004   172.76 
      1.1200    50.0000     1.8800     1.111E-003   137.87    2.794E-004   166.81    6.635E-004  -176.04 
      1.2000    50.0000     1.8800     1.425E-003  -168.43    1.967E-004   134.38    5.955E-004  -163.47 
      1.2800    50.0000     1.8800     2.220E-003  -167.78    1.735E-004    73.83    6.107E-004  -151.02 
      1.3600    50.0000     1.8800     2.837E-003   176.49    2.251E-004    32.52    7.076E-004  -143.55 
      1.4400    50.0000     1.8800     3.305E-003   158.76    2.100E-004     3.34    7.926E-004  -143.73 
      1.5200    50.0000     1.8800     3.399E-003   144.57    1.516E-004   -48.97    7.613E-004  -149.42 
      1.6000    50.0000     1.8800     2.838E-003   134.61    2.011E-004  -110.81    7.146E-004  -152.36 
      1.6800    50.0000     1.8800     1.683E-003   129.85    2.681E-004  -140.05    6.299E-004  -146.61 
      1.7600    50.0000     1.8800     4.643E-004   157.23    2.375E-004  -162.46    4.899E-004  -136.42 
      1.8400    50.0000     1.8800     7.690E-004  -114.80    1.425E-004   156.43    1.863E-004  -125.23 
      1.9200    50.0000     1.8800     1.307E-003  -131.72    1.474E-004    77.55    4.860E-004    43.15 
      2.0000    50.0000     1.8800     3.936E-007   156.18    3.753E-010  -125.84    1.336E-009    50.19 
     -2.0000    50.0000     1.9200     5.041E-003   -52.09    3.907E-004   -39.60    5.209E-004   -35.88 
     -1.9200    50.0000     1.9200     3.361E-003    14.29    4.485E-004   -40.39    5.354E-004   -13.25 
     -1.8400    50.0000     1.9200     5.128E-003    23.67    3.085E-004   -30.59    4.976E-004     6.71 
     -1.7600    50.0000     1.9200     6.017E-003    31.46    1.785E-004    -2.08    5.063E-004    27.56 
     -1.6800    50.0000     1.9200     6.070E-003    37.81    1.625E-004    66.80    5.148E-004    52.45 
     -1.6000    50.0000     1.9200     5.256E-003    45.03    2.845E-004   101.85    5.300E-004    78.41 
     -1.5200    50.0000     1.9200     3.792E-003    56.82    3.905E-004   114.36    5.703E-004    98.51 
     -1.4400    50.0000     1.9200     2.273E-003    86.20    4.345E-004   119.17    6.098E-004   114.75 
     -1.3600    50.0000     1.9200     2.200E-003   144.73    4.182E-004   119.00    6.008E-004   133.22 
     -1.2800    50.0000     1.9200     3.576E-003   173.53    3.568E-004   116.65    5.419E-004   155.40 
     -1.2000    50.0000     1.9200     4.924E-003  -177.28    2.578E-004   116.28    4.945E-004  -179.99 
     -1.1200    50.0000     1.9200     5.720E-003  -173.32    1.157E-004   132.31    5.022E-004  -162.57 
     -1.0400    50.0000     1.9200     5.736E-003  -170.36    1.014E-004  -120.46    5.350E-004  -144.11 
     -0.9600    50.0000     1.9200     4.928E-003  -166.17    2.494E-004   -97.43    5.716E-004  -123.70 
     -0.8800    50.0000     1.9200     3.509E-003  -157.02    3.568E-004   -93.98    5.958E-004  -106.61 
     -0.8000    50.0000     1.9200     2.091E-003  -129.32    3.916E-004   -95.99    6.039E-004   -93.40 
     -0.7200    50.0000     1.9200     2.092E-003   -74.95    3.646E-004  -105.15    6.006E-004   -72.38 
     -0.6400    50.0000     1.9200     3.340E-003   -51.64    3.043E-004  -118.38    5.945E-004   -51.57 
     -0.5600    50.0000     1.9200     4.533E-003   -46.78    2.155E-004  -131.76    6.210E-004   -33.68 
     -0.4800    50.0000     1.9200     5.238E-003   -46.72    8.278E-005  -148.57    6.359E-004   -26.02 
     -0.4000    50.0000     1.9200     5.241E-003   -47.14    8.303E-005    49.13    6.511E-004   -18.35 
     -0.3200    50.0000     1.9200     4.474E-003   -45.83    2.325E-004    35.94    6.417E-004    -4.78 
     -0.2400    50.0000     1.9200     3.133E-003   -38.95    3.291E-004    28.68    5.996E-004    12.71 
     -0.1600    50.0000     1.9200     1.846E-003   -12.00    3.488E-004    19.41    5.486E-004    30.35 
     -0.0800    50.0000     1.9200     1.934E-003    38.58    3.050E-004     3.56    5.362E-004    48.51 
      0.0000    50.0000     1.9200     3.031E-003    55.76    2.462E-004   -21.52    5.900E-004    66.40 
      0.0800    50.0000     1.9200     4.044E-003    55.61    1.933E-004   -49.69    6.611E-004    79.63 
      0.1600    50.0000     1.9200     4.652E-003    51.35    1.123E-004   -85.74    6.975E-004    85.29 
      0.2400    50.0000     1.9200     4.653E-003    47.30    9.701E-005   178.64    7.065E-004    87.82 
      0.3200    50.0000     1.9200     3.944E-003    45.67    2.141E-004   138.47    7.028E-004    94.76 
      0.4000    50.0000     1.9200     2.693E-003    50.44    2.959E-004   122.69    6.683E-004   107.28 
      0.4800    50.0000     1.9200     1.533E-003    78.02    2.993E-004   107.80    6.044E-004   122.07 
      0.5600    50.0000     1.9200     1.712E-003   126.41    2.416E-004    83.97    5.667E-004   137.66 
      0.6400    50.0000     1.9200     2.647E-003   136.80    1.969E-004    43.89    6.114E-004   152.40 
      0.7200    50.0000     1.9200     3.462E-003   130.73    1.928E-004     4.89    7.047E-004   162.33 
      0.8000    50.0000     1.9200     3.979E-003   121.30    1.556E-004   -30.13    7.617E-004   165.70 
      0.8800    50.0000     1.9200     4.005E-003   113.17    1.210E-004   -95.01    7.660E-004   164.78 
      0.9600    50.0000     1.9200     3.382E-003   108.43    1.983E-004  -148.88    7.547E-004   166.12 
      1.0400    50.0000     1.9200     2.234E-003   111.00    2.669E-004  -172.24    7.267E-004   173.76 
      1.1200    50.0000     1.9200     1.398E-003   130.80    2.517E-004   178.07    6.685E-004  -174.55 
      1.2000    50.0000     1.9200     1.421E-003  -171.05    1.842E-004   137.00    6.202E-004  -161.35 
      1.2800    50.0000     1.9200     2.121E-003  -170.38    1.440E-004    77.47    6.563E-004  -150.28 
      1.3600    50.0000     1.9200     2.724E-003   178.62    2.022E-004    35.49    7.567E-004  -144.73 
      1.4400    50.0000     1.9200     3.144E-003   162.27    1.906E-004     5.78    8.280E-004  -144.50 
      1.5200    50.0000     1.9200     3.221E-003   148.94    1.383E-004   -45.13    8.270E-004  -147.85 
      1.6000    50.0000     1.9200     2.718E-003   140.08    1.809E-004  -108.17    7.560E-004  -149.35 
      1.6800    50.0000     1.9200     1.684E-003   138.04    2.413E-004  -138.03    7.227E-004  -145.74 
      1.7600    50.0000     1.9200     6.424E-004   167.60    2.186E-004  -160.18    6.483E-004  -136.63 
      1.8400    50.0000     1.9200     7.955E-004  -125.40    1.342E-004   160.41    4.588E-004  -128.94 
      1.9200    50.0000     1.9200     1.859E-003  -130.11    1.109E-004    96.67    1.053E-004     0.94 
      2.0000    50.0000     1.9200     3.937E-007   155.86    3.768E-010  -126.41    1.368E-009    47.75 
     -2.0000    50.0000     1.9600     4.406E-003   -73.59    2.899E-004   -45.09    5.228E-004   -36.42 
     -1.9200    50.0000     1.9600     2.575E-003     6.93    2.946E-004   -42.47    5.326E-004   -13.59 
     -1.8400    50.0000     1.9600     3.606E-003    21.03    2.210E-004   -31.70    5.024E-004     8.16 
     -1.7600    50.0000     1.9600     4.225E-003    29.10    1.323E-004    -3.18    5.078E-004    29.78 
     -1.6800    50.0000     1.9600     4.257E-003    35.79    1.192E-004    62.26    5.217E-004    54.79 
     -1.6000    50.0000     1.9600     3.682E-003    43.45    2.006E-004    98.56    5.454E-004    78.75 
     -1.5200    50.0000     1.9600     2.656E-003    55.93    2.742E-004   112.54    5.685E-004    97.13 
     -1.4400    50.0000     1.9600     1.617E-003    86.36    3.047E-004   118.33    5.873E-004   113.04 
     -1.3600    50.0000     1.9600     1.606E-003   143.35    2.928E-004   118.47    5.778E-004   132.71 
     -1.2800    50.0000     1.9600     2.563E-003   171.29    2.512E-004   116.01    5.365E-004   156.71 
     -1.2000    50.0000     1.9600     3.494E-003  -179.45    1.832E-004   114.95    5.166E-004  -178.13 
     -1.1200    50.0000     1.9600     4.038E-003  -175.31    8.410E-005   132.32    5.185E-004  -160.68 
     -1.0400    50.0000     1.9600     4.035E-003  -172.07    7.470E-005  -124.38    5.467E-004  -142.72 
     -0.9600    50.0000     1.9600     3.454E-003  -167.47    1.783E-004   -99.88    5.795E-004  -123.49 
     -0.8800    50.0000     1.9600     2.449E-003  -157.58    2.545E-004   -95.47    5.883E-004  -106.96 
     -0.8000    50.0000     1.9600     1.472E-003  -128.35    2.788E-004   -96.67    5.816E-004   -93.11 
     -0.7200    50.0000     1.9600     1.523E-003   -74.82    2.580E-004  -105.20    5.763E-004   -73.51 
     -0.6400    50.0000     1.9600     2.402E-003   -52.64    2.090E-004  -120.12    6.186E-004   -52.68 
     -0.5600    50.0000     1.9600     3.225E-003   -47.92    1.494E-004  -134.78    6.394E-004   -35.20 
     -0.4800    50.0000     1.9600     3.704E-003   -47.81    5.294E-005  -151.46    6.283E-004   -26.60 
     -0.4000    50.0000     1.9600     3.690E-003   -48.01    6.694E-005    44.83    6.240E-004   -17.57 
     -0.3200    50.0000     1.9600     3.135E-003   -46.21    1.733E-004    33.75    6.181E-004    -3.33 
     -0.2400    50.0000     1.9600     2.182E-003   -38.26    2.399E-004    26.94    5.895E-004    14.52 
     -0.1600    50.0000     1.9600     1.306E-003    -8.92    2.516E-004    17.97    5.524E-004    32.71 
     -0.0800    50.0000     1.9600     1.437E-003    40.27    2.174E-004     2.26    5.593E-004    50.26 
      0.0000    50.0000     1.9600     2.211E-003    56.00    1.728E-004   -23.37    6.231E-004    65.79 
      0.0800    50.0000     1.9600     2.900E-003    55.58    1.353E-004   -52.47    6.852E-004    77.90 
      0.1600    50.0000     1.9600     3.302E-003    51.29    7.715E-005   -90.27    6.975E-004    84.59 
      0.2400    50.0000     1.9600     3.279E-003    47.44    7.412E-005   172.59    6.852E-004    88.59 
      0.3200    50.0000     1.9600     2.759E-003    46.45    1.603E-004   136.22    6.793E-004    95.99 
      0.4000    50.0000     1.9600     1.867E-003    52.95    2.174E-004   121.26    6.554E-004   108.50 
      0.4800    50.0000     1.9600     1.101E-003    84.62    2.181E-004   106.82    6.051E-004   123.80 
      0.5600    50.0000     1.9600     1.328E-003   130.17    1.741E-004    83.45    5.867E-004   139.44 
      0.6400    50.0000     1.9600     1.991E-003   138.73    1.392E-004    42.67    6.448E-004   152.28 
      0.7200    50.0000     1.9600     2.533E-003   132.39    1.371E-004     2.39    7.313E-004   160.86 
      0.8000    50.0000     1.9600     2.858E-003   122.85    1.110E-004   -33.31    7.681E-004   164.98 
      0.8800    50.0000     1.9600     2.843E-003   114.89    8.925E-005   -99.57    7.525E-004   165.65 
      0.9600    50.0000     1.9600     2.378E-003   111.02    1.485E-004  -151.16    7.351E-004   167.61 
      1.0400    50.0000     1.9600     1.559E-003   116.36    1.974E-004  -173.55    7.158E-004   174.97 
      1.1200    50.0000     1.9600     9.072E-004   152.00    1.888E-004   167.71    6.723E-004  -173.12 
      1.2000    50.0000     1.9600     1.197E-003  -165.97    1.352E-004   137.12    6.460E-004  -159.82 
      1.2800    50.0000     1.9600     1.713E-003  -164.17    1.130E-004    77.90    6.965E-004  -150.24 
      1.3600    50.0000     1.9600     2.073E-003  -177.16    1.457E-004    33.82    7.932E-004  -146.00 
      1.4400    50.0000     1.9600     2.306E-003   166.71    1.385E-004     3.89    8.487E-004  -145.24 
      1.5200    50.0000     1.9600     2.309E-003   153.66    1.007E-004   -47.55    8.328E-004  -147.18 
      1.6000    50.0000     1.9600     1.919E-003   146.39    1.341E-004  -109.34    7.918E-004  -148.81 
      1.6800    50.0000     1.9600     1.181E-003   150.27    1.781E-004  -139.65    7.691E-004  -143.37 
      1.7600    50.0000     1.9600     6.227E-004  -164.70    1.638E-004  -161.57    7.614E-004  -136.38 
      1.8400    50.0000     1.9600     9.043E-004  -122.63    1.003E-004   160.51    6.889E-004  -126.68 
      1.9200    50.0000     1.9600     9.926E-004  -128.84    9.674E-005    83.58    5.173E-004  -121.32 
      2.0000    50.0000     1.9600     3.937E-007   155.40    3.782E-010  -127.08    1.394E-009    45.22 
     -2.0000    50.0000     2.0000     4.647E-003  -119.62    2.094E-004  -108.70    5.376E-004   -35.99 
     -1.9200    50.0000     2.0000     2.345E-003   -70.65    2.362E-004  -129.82    5.116E-004   -10.18 
     -1.8400    50.0000     2.0000     3.233E-003   -60.96    1.580E-004  -120.21    5.003E-004    13.49 
     -1.7600    50.0000     2.0000     3.688E-003   -55.59    7.191E-005   -84.51    5.068E-004    33.06 
     -1.6800    50.0000     2.0000     3.597E-003   -51.16    9.710E-005     0.50    5.272E-004    55.42 
     -1.6000    50.0000     2.0000     2.961E-003   -45.79    1.856E-004    22.37    5.555E-004    77.26 
     -1.5200    50.0000     2.0000     1.927E-003   -35.63    2.434E-004    29.58    5.728E-004    93.52 
     -1.4400    50.0000     2.0000     9.038E-004     1.97    2.570E-004    31.28    5.647E-004   108.82 
     -1.3600    50.0000     2.0000     1.206E-003    77.75    2.369E-004    29.02    5.305E-004   132.04 
     -1.2800    50.0000     2.0000     2.204E-003    96.08    1.917E-004    25.03    5.111E-004   162.21 
     -1.2000    50.0000     2.0000     2.997E-003    99.84    1.268E-004    21.41    5.412E-004  -172.68 
     -1.1200    50.0000     2.0000     3.391E-003   100.50    3.271E-005    24.98    5.394E-004  -157.82 
     -1.0400    50.0000     2.0000     3.282E-003   100.86    7.267E-005  -175.82    5.510E-004  -142.45 
     -0.9600    50.0000     2.0000     2.663E-003   102.52    1.657E-004  -176.04    5.795E-004  -124.77 
     -0.8800    50.0000     2.0000     1.672E-003   109.18    2.219E-004  -178.13    5.852E-004  -109.43 
     -0.8000    50.0000     2.0000     7.154E-004   147.21    2.278E-004   176.70    5.607E-004   -95.44 
     -0.7200    50.0000     2.0000     1.082E-003  -138.13    2.031E-004   165.63    5.583E-004   -73.19 
     -0.6400    50.0000     2.0000     1.956E-003  -127.12    1.675E-004   147.89    6.388E-004   -50.76 
     -0.5600    50.0000     2.0000     2.621E-003  -128.93    1.168E-004   126.50    6.648E-004   -35.15 
     -0.4800    50.0000     2.0000     2.948E-003  -133.08    5.863E-005    80.35    6.197E-004   -27.39 
     -0.4000    50.0000     2.0000     2.836E-003  -136.85    7.804E-005   -10.88    5.704E-004   -18.91 
     -0.3200    50.0000     2.0000     2.254E-003  -138.94    1.533E-004   -40.76    5.611E-004    -3.18 
     -0.2400    50.0000     2.0000     1.323E-003  -135.95    2.040E-004   -54.09    5.676E-004    15.92 
     -0.1600    50.0000     2.0000     4.532E-004   -90.38    2.047E-004   -66.29    5.636E-004    34.32 
     -0.0800    50.0000     2.0000     9.525E-004   -16.57    1.676E-004   -86.27    5.918E-004    52.19 
      0.0000    50.0000     2.0000     1.674E-003   -15.90    1.346E-004  -118.82    6.726E-004    67.22 
      0.0800    50.0000     2.0000     2.184E-003   -24.90    1.159E-004  -153.88    7.323E-004    77.73 
      0.1600    50.0000     2.0000     2.439E-003   -35.11    8.981E-005   163.93    7.012E-004    83.30 
      0.2400    50.0000     2.0000     2.341E-003   -43.86    9.218E-005   101.03    6.346E-004    87.41 
      0.3200    50.0000     2.0000     1.814E-003   -50.47    1.438E-004    59.66    6.133E-004    96.14 
      0.4000    50.0000     2.0000     9.496E-004   -53.20    1.833E-004    38.75    6.214E-004   109.78 
      0.4800    50.0000     2.0000     1.689E-004    29.19    1.740E-004    21.42    6.113E-004   125.33 
      0.5600    50.0000     2.0000     8.478E-004    85.06    1.276E-004    -7.29    6.213E-004   141.21 
      0.6400    50.0000     2.0000     1.356E-003    73.07    1.095E-004   -57.76    7.006E-004   153.43 
      0.7200    50.0000     2.0000     1.662E-003    54.41    1.246E-004   -97.08    7.845E-004   160.35 
      0.8000    50.0000     2.0000     1.837E-003    35.73    1.135E-004  -130.48    7.789E-004   163.51 
      0.8800    50.0000     2.0000     1.770E-003    20.68    9.936E-005   177.48    7.055E-004   164.82 
      0.9600    50.0000     2.0000     1.324E-003     8.81    1.329E-004   128.42    6.646E-004   168.37 
      1.0400    50.0000     2.0000     5.509E-004    -3.44    1.657E-004   101.59    6.751E-004   176.69 
      1.1200    50.0000     2.0000     2.956E-004  -179.98    1.493E-004    80.76    6.782E-004  -171.66 
      1.2000    50.0000     2.0000     8.958E-004   161.69    9.424E-005    44.11    6.853E-004  -158.74 
      1.2800    50.0000     2.0000     1.122E-003   141.91    9.335E-005   -26.35    7.558E-004  -149.74 
      1.3600    50.0000     2.0000     1.128E-003   112.37    1.330E-004   -62.82    8.484E-004  -146.66 
      1.4400    50.0000     2.0000     1.173E-003    79.18    1.262E-004   -89.84    8.639E-004  -146.56 
      1.5200    50.0000     2.0000     1.152E-003    53.88    9.601E-005  -137.97    7.915E-004  -147.48 
      1.6000    50.0000     2.0000     8.099E-004    32.99    1.193E-004   164.14    7.286E-004  -147.22 
      1.6800    50.0000     2.0000     2.406E-004   -29.50    1.528E-004   133.23    7.380E-004  -143.07 
      1.7600    50.0000     2.0000     6.917E-004  -133.73    1.370E-004   109.83    8.105E-004  -134.26 
      1.8400    50.0000     2.0000     1.147E-003  -151.71    7.251E-005    68.34    8.200E-004  -127.58 
      1.9200    50.0000     2.0000     1.135E-003  -166.17    8.145E-005   -19.19    8.828E-004  -120.21 
      2.0000    50.0000     2.0000     3.938E-007   154.84    3.793E-010  -127.84    1.413E-009    42.58 






***** DATA CARD NO. 21   XQ   0     0     0     0  0.00000E+000 0.00000E+000 0.00000E+000 0.00000E+000 0.00000E+000 0.00000E+000   
***** DATA CARD NO. 22   EN   0     0     0     0  0.00000E+000 0.00000E+000 0.00000E+000 0.00000E+000 0.00000E+000 0.00000E+000   



	******************* Simulation by SuperNec *********************** 

 RUN TIME =     15.361 SEC.
